Circuit: * Z:\home\q425942\projects\ac-led-bridge\sim\emitter.asc

C4: Increased Cpar to 1e-011
C1: Increased Cpar to 1e-012
C2: Increased Cpar to 6.8e-011
WARNING: Less than two connections to node NC_02.  This node is used by M:U2:MN17:1.
Instance "m:u2:mn10:1": Length shorter than recommended for a level 1 MOSFET.
Direct Newton iteration failed to find .op point.  (Use ".option noopiter" to skip.)
Starting Gmin stepping
Gmin = 10
Gmin = 1.07374
Gmin = 0.115292
Gmin = 0.0123794
Gmin = 0.00132923
Gmin = 0.000142725
Gmin = 1.5325e-005
Gmin = 1.6455e-006
Gmin = 1.76685e-007
Gmin = 1.89714e-008
Gmin = 2.03704e-009
Gmin = 2.18725e-010
Gmin = 2.34854e-011
Gmin = 0
Gmin stepping succeeded in finding the operating point.

Heightened Def Con from 0.00255743 to 0.00255744
Heightened Def Con from 0.00350399 to 0.00350401
Heightened Def Con from 0.00390166 to 0.00390167
Heightened Def Con from 0.00402598 to 0.004026
Heightened Def Con from 0.00442188 to 0.00442189
Heightened Def Con from 0.00481779 to 0.0048178
Heightened Def Con from 0.00503527 to 0.00503528
Heightened Def Con from 0.00512238 to 0.00512239
Heightened Def Con from 0.00512239 to 0.0051224
Heightened Def Con from 0.005158 to 0.00515801
Heightened Def Con from 0.00521343 to 0.00521345
Heightened Def Con from 0.005229 to 0.00522901
Heightened Def Con from 0.00526436 to 0.00526437
Heightened Def Con from 0.00552939 to 0.0055294
Heightened Def Con from 0.00556427 to 0.00556429
Heightened Def Con from 0.00564993 to 0.00564994
Heightened Def Con from 0.00566872 to 0.00566873
Heightened Def Con from 0.00575454 to 0.00575455
Heightened Def Con from 0.0057894 to 0.00578941
Heightened Def Con from 0.00578941 to 0.00578942
Heightened Def Con from 0.00580789 to 0.00580791
Heightened Def Con from 0.00582428 to 0.00582429
Heightened Def Con from 0.00585916 to 0.00585917
Heightened Def Con from 0.00592901 to 0.00592901
Heightened Def Con from 0.00594721 to 0.00594722
Heightened Def Con from 0.00603391 to 0.00603392
Heightened Def Con from 0.00606895 to 0.00606896
Heightened Def Con from 0.00606896 to 0.00606897
Heightened Def Con from 0.00610405 to 0.00610406
Heightened Def Con from 0.00610406 to 0.00610406
Heightened Def Con from 0.00613919 to 0.0061392
Heightened Def Con from 0.0061392 to 0.00613921
Heightened Def Con from 0.00617437 to 0.00617438
Heightened Def Con from 0.00619214 to 0.00619215
Heightened Def Con from 0.00628015 to 0.00628015
Heightened Def Con from 0.00629776 to 0.00629777
Heightened Def Con from 0.0063509 to 0.00635091
Heightened Def Con from 0.00638637 to 0.00638638
Heightened Def Con from 0.00642187 to 0.00642188
Heightened Def Con from 0.00642188 to 0.00642188
Heightened Def Con from 0.00649312 to 0.00649312
Heightened Def Con from 0.00651044 to 0.00651045
Heightened Def Con from 0.00652881 to 0.00652881
Heightened Def Con from 0.00656461 to 0.00656461
Heightened Def Con from 0.00663639 to 0.0066364
Heightened Def Con from 0.00670839 to 0.0067084
Heightened Def Con from 0.0067445 to 0.0067445
Heightened Def Con from 0.00678073 to 0.00678074
Heightened Def Con from 0.00679771 to 0.00679772
Heightened Def Con from 0.00681696 to 0.00681697
Heightened Def Con from 0.00681697 to 0.00681697
Heightened Def Con from 0.00685331 to 0.00685332
Heightened Def Con from 0.00687024 to 0.00687025
Heightened Def Con from 0.00688973 to 0.00688974
Heightened Def Con from 0.00692623 to 0.00692623
Heightened Def Con from 0.00692623 to 0.00692623
Heightened Def Con from 0.00696282 to 0.00696283
Heightened Def Con from 0.00696283 to 0.00696284
Heightened Def Con from 0.00697966 to 0.00697967
Heightened Def Con from 0.00703623 to 0.00703624
Heightened Def Con from 0.00703624 to 0.00703624
Heightened Def Con from 0.00705302 to 0.00705303
Heightened Def Con from 0.00707308 to 0.00707308
Heightened Def Con from 0.00710997 to 0.00710998
Heightened Def Con from 0.00710998 to 0.00710998
Heightened Def Con from 0.00712666 to 0.00712666
Heightened Def Con from 0.00712666 to 0.00712668
Heightened Def Con from 0.00714694 to 0.00714694
Heightened Def Con from 0.00716362 to 0.00716364
Heightened Def Con from 0.00718402 to 0.00718403
Heightened Def Con from 0.00718403 to 0.00718403
Heightened Def Con from 0.00720067 to 0.00720069
Heightened Def Con from 0.00722119 to 0.00722119
Heightened Def Con from 0.0072378 to 0.00723781
Heightened Def Con from 0.00725842 to 0.00725842
Heightened Def Con from 0.00729574 to 0.00729575
Heightened Def Con from 0.00731231 to 0.00731232
Heightened Def Con from 0.0073497 to 0.00734972
Heightened Def Con from 0.00737067 to 0.00737068
Heightened Def Con from 0.00737068 to 0.00737068
Heightened Def Con from 0.00740824 to 0.00740825
Heightened Def Con from 0.00742472 to 0.00742473
Heightened Def Con from 0.00744592 to 0.00744593
Heightened Def Con from 0.00746236 to 0.00746237
Heightened Def Con from 0.00748366 to 0.00748368
Heightened Def Con from 0.00752154 to 0.00752154
Heightened Def Con from 0.00752154 to 0.00752154
Heightened Def Con from 0.0075595 to 0.00755951
Heightened Def Con from 0.00757589 to 0.0075759
Heightened Def Con from 0.00761391 to 0.00761393
Heightened Def Con from 0.00763569 to 0.00763569
Heightened Def Con from 0.00763569 to 0.00763571
Heightened Def Con from 0.00767391 to 0.00767392
Heightened Def Con from 0.00771222 to 0.00771222
Heightened Def Con from 0.00771222 to 0.00771223
Heightened Def Con from 0.00772851 to 0.00772853
Heightened Def Con from 0.00775063 to 0.00775064
Heightened Def Con from 0.00775064 to 0.00775064
Heightened Def Con from 0.00778915 to 0.00778916
Heightened Def Con from 0.0078664 to 0.00786641
Heightened Def Con from 0.00790517 to 0.00790518
Heightened Def Con from 0.00792134 to 0.00792136
Heightened Def Con from 0.00796018 to 0.0079602
Heightened Def Con from 0.00802202 to 0.00802203
Heightened Def Con from 0.00802203 to 0.00802204
Heightened Def Con from 0.00806118 to 0.00806119
Heightened Def Con from 0.00810044 to 0.00810044
Heightened Def Con from 0.00810044 to 0.00810046
Heightened Def Con from 0.00813979 to 0.0081398
Heightened Def Con from 0.00817923 to 0.00817925
Heightened Def Con from 0.00825842 to 0.00825842
Heightened Def Con from 0.00827441 to 0.00827442
Heightened Def Con from 0.00829811 to 0.00829812
Heightened Def Con from 0.00829812 to 0.00829813
Heightened Def Con from 0.00831412 to 0.00831414
Heightened Def Con from 0.00835394 to 0.00835395
Heightened Def Con from 0.00837788 to 0.00837789
Heightened Def Con from 0.00837789 to 0.00837789
Heightened Def Con from 0.00839385 to 0.00839386
Heightened Def Con from 0.00841791 to 0.00841791
Heightened Def Con from 0.00843385 to 0.00843386
Heightened Def Con from 0.00845802 to 0.00845803
Heightened Def Con from 0.00847393 to 0.00847395
Heightened Def Con from 0.00849821 to 0.00849821
Heightened Def Con from 0.00849821 to 0.00849822
Heightened Def Con from 0.00851414 to 0.00851415
Heightened Def Con from 0.00853854 to 0.00853854
Heightened Def Con from 0.00853854 to 0.00853854
Heightened Def Con from 0.00855444 to 0.00855445
Heightened Def Con from 0.00857894 to 0.00857894
Heightened Def Con from 0.00861943 to 0.00861945
Heightened Def Con from 0.00866002 to 0.00866003
Heightened Def Con from 0.00866003 to 0.00866003
Heightened Def Con from 0.00870073 to 0.00870073
Heightened Def Con from 0.00874152 to 0.00874153
Heightened Def Con from 0.00878244 to 0.00878246
Heightened Def Con from 0.00882341 to 0.00882341
Heightened Def Con from 0.0088645 to 0.0088645
Heightened Def Con from 0.00888029 to 0.0088803
Heightened Def Con from 0.00890568 to 0.0089057
Heightened Def Con from 0.00894696 to 0.00894697
Heightened Def Con from 0.00894697 to 0.00894698
Heightened Def Con from 0.00898836 to 0.00898836
Heightened Def Con from 0.00902984 to 0.00902984
Heightened Def Con from 0.00904557 to 0.00904559
Heightened Def Con from 0.00907143 to 0.00907143
Heightened Def Con from 0.00908714 to 0.00908715
Heightened Def Con from 0.00911309 to 0.0091131
Heightened Def Con from 0.00915484 to 0.00915485
Heightened Def Con from 0.00915485 to 0.00915485
Heightened Def Con from 0.00917055 to 0.00917056
Heightened Def Con from 0.00919669 to 0.0091967
Heightened Def Con from 0.00923864 to 0.00923864
Heightened Def Con from 0.00923864 to 0.00923864
Heightened Def Con from 0.00928069 to 0.00928069
Heightened Def Con from 0.00928069 to 0.00928069
Heightened Def Con from 0.00932284 to 0.00932284
Heightened Def Con from 0.00932284 to 0.00932286
Heightened Def Con from 0.00933851 to 0.00933852
Heightened Def Con from 0.00936515 to 0.00936516
Heightened Def Con from 0.00936516 to 0.00936516
Heightened Def Con from 0.00940754 to 0.00940755
Heightened Def Con from 0.00940755 to 0.00940756
Heightened Def Con from 0.00942318 to 0.0094232
Heightened Def Con from 0.00945002 to 0.00945003
Heightened Def Con from 0.00949254 to 0.00949254
Heightened Def Con from 0.00949254 to 0.00949254
Heightened Def Con from 0.00953511 to 0.00953512
Heightened Def Con from 0.00957777 to 0.00957778
Heightened Def Con from 0.00957778 to 0.00957778
Heightened Def Con from 0.00957778 to 0.00957779
Heightened Def Con from 0.00959335 to 0.00959336
Heightened Def Con from 0.00962051 to 0.00962053
Heightened Def Con from 0.0096634 to 0.00966341
Heightened Def Con from 0.00967897 to 0.00967898
Heightened Def Con from 0.00970643 to 0.00970643
Heightened Def Con from 0.00972199 to 0.00972201
Heightened Def Con from 0.0097496 to 0.0097496
Heightened Def Con from 0.00976516 to 0.00976518
Heightened Def Con from 0.00983626 to 0.00983627
Heightened Def Con from 0.00983627 to 0.00983628
Heightened Def Con from 0.00985178 to 0.0098518
Heightened Def Con from 0.00987966 to 0.00987966
Heightened Def Con from 0.0098952 to 0.00989521
Heightened Def Con from 0.0100976 to 0.0100976
Heightened Def Con from 0.0100976 to 0.0100976
Heightened Def Con from 0.0101414 to 0.0101414
Heightened Def Con from 0.0101855 to 0.0101855
Heightened Def Con from 0.0101855 to 0.0101855
Heightened Def Con from 0.0102297 to 0.0102297
Heightened Def Con from 0.0102297 to 0.0102297
Heightened Def Con from 0.0102297 to 0.0102297
Heightened Def Con from 0.010274 to 0.010274
Heightened Def Con from 0.010274 to 0.010274
Heightened Def Con from 0.0102895 to 0.0102895
Heightened Def Con from 0.0103184 to 0.0103184
Heightened Def Con from 0.0103184 to 0.0103184
Heightened Def Con from 0.0103338 to 0.0103338
Heightened Def Con from 0.0103628 to 0.0103628
Heightened Def Con from 0.0103782 to 0.0103782
Heightened Def Con from 0.0104072 to 0.0104072
Heightened Def Con from 0.0104517 to 0.0104517
Heightened Def Con from 0.0104517 to 0.0104517
Heightened Def Con from 0.0104962 to 0.0104962
Heightened Def Con from 0.0104962 to 0.0104962
Heightened Def Con from 0.0105407 to 0.0105407
Heightened Def Con from 0.0105407 to 0.0105407
Heightened Def Con from 0.0105407 to 0.0105407
Heightened Def Con from 0.0105561 to 0.0105561
Heightened Def Con from 0.0105853 to 0.0105853
Heightened Def Con from 0.0105853 to 0.0105853
Heightened Def Con from 0.01063 to 0.01063
Heightened Def Con from 0.01063 to 0.01063
Heightened Def Con from 0.0106454 to 0.0106454
Heightened Def Con from 0.0106749 to 0.0106749
Heightened Def Con from 0.0106749 to 0.0106749
Heightened Def Con from 0.0106902 to 0.0106902
Heightened Def Con from 0.0107199 to 0.0107199
Heightened Def Con from 0.0107353 to 0.0107353
Heightened Def Con from 0.0107651 to 0.0107651
Heightened Def Con from 0.0108105 to 0.0108105
Heightened Def Con from 0.0108105 to 0.0108105
Heightened Def Con from 0.0108559 to 0.0108559
Heightened Def Con from 0.0108713 to 0.0108713
Heightened Def Con from 0.0109014 to 0.0109014
Heightened Def Con from 0.0109014 to 0.0109014
Heightened Def Con from 0.0109469 to 0.0109469
Heightened Def Con from 0.0109925 to 0.0109925
Heightened Def Con from 0.0109925 to 0.0109925
Heightened Def Con from 0.011038 to 0.011038
Heightened Def Con from 0.011038 to 0.0110381
Heightened Def Con from 0.0110836 to 0.0110836
Heightened Def Con from 0.0110836 to 0.0110837
Heightened Def Con from 0.0111293 to 0.0111293
Heightened Def Con from 0.0111293 to 0.0111293
Heightened Def Con from 0.0111446 to 0.0111446
Heightened Def Con from 0.0111749 to 0.0111749
Heightened Def Con from 0.0111749 to 0.0111749
Heightened Def Con from 0.0112206 to 0.0112206
Heightened Def Con from 0.0112359 to 0.0112359
Heightened Def Con from 0.0112663 to 0.0112664
Heightened Def Con from 0.0113121 to 0.0113122
Heightened Def Con from 0.0113274 to 0.0113274
Heightened Def Con from 0.011358 to 0.011358
Heightened Def Con from 0.0114041 to 0.0114041
Heightened Def Con from 0.0114041 to 0.0114041
Heightened Def Con from 0.0114194 to 0.0114194
Heightened Def Con from 0.0114505 to 0.0114505
Heightened Def Con from 0.0114505 to 0.0114505
Heightened Def Con from 0.0114969 to 0.011497
Heightened Def Con from 0.0115435 to 0.0115435
Heightened Def Con from 0.0115435 to 0.0115435
Heightened Def Con from 0.0115901 to 0.0115901
Heightened Def Con from 0.0115901 to 0.0115901
Heightened Def Con from 0.0116368 to 0.0116368
Heightened Def Con from 0.0116835 to 0.0116835
Heightened Def Con from 0.0116835 to 0.0116835
Heightened Def Con from 0.0117303 to 0.0117303
Heightened Def Con from 0.0117303 to 0.0117303
Heightened Def Con from 0.0117455 to 0.0117455
Heightened Def Con from 0.011777 to 0.011777
Heightened Def Con from 0.011777 to 0.011777
Heightened Def Con from 0.011777 to 0.011777
Heightened Def Con from 0.0117923 to 0.0117923
Heightened Def Con from 0.0118238 to 0.0118238
Heightened Def Con from 0.0118391 to 0.0118391
Heightened Def Con from 0.0118706 to 0.0118706
Heightened Def Con from 0.0118706 to 0.0118706
Heightened Def Con from 0.0118706 to 0.0118706
Heightened Def Con from 0.0118858 to 0.0118859
Heightened Def Con from 0.0119174 to 0.0119174
Heightened Def Con from 0.0119643 to 0.0119643
Heightened Def Con from 0.0119643 to 0.0119643
Heightened Def Con from 0.0120111 to 0.0120111
Heightened Def Con from 0.0120111 to 0.0120111
Heightened Def Con from 0.0120263 to 0.0120264
Heightened Def Con from 0.012058 to 0.012058
Heightened Def Con from 0.012058 to 0.012058
Heightened Def Con from 0.012058 to 0.012058
Heightened Def Con from 0.0120732 to 0.0120732
Heightened Def Con from 0.012105 to 0.012105
Heightened Def Con from 0.012105 to 0.012105
Heightened Def Con from 0.012105 to 0.012105
Heightened Def Con from 0.0121519 to 0.0121519
Heightened Def Con from 0.0121989 to 0.0121989
Heightened Def Con from 0.012246 to 0.012246
Heightened Def Con from 0.0122612 to 0.0122612
Heightened Def Con from 0.0122934 to 0.0122934
Heightened Def Con from 0.0123087 to 0.0123087
Heightened Def Con from 0.0123411 to 0.0123411
Heightened Def Con from 0.0123888 to 0.0123888
Heightened Def Con from 0.0123888 to 0.0123888
Heightened Def Con from 0.0123888 to 0.0123888
Heightened Def Con from 0.012404 to 0.012404
Heightened Def Con from 0.0124366 to 0.0124366
Heightened Def Con from 0.0124845 to 0.0124845
Heightened Def Con from 0.0125324 to 0.0125324
Heightened Def Con from 0.0125324 to 0.0125324
Heightened Def Con from 0.0125476 to 0.0125476
Heightened Def Con from 0.0125803 to 0.0125803
Heightened Def Con from 0.0125803 to 0.0125803
Heightened Def Con from 0.0125803 to 0.0125803
Heightened Def Con from 0.0125955 to 0.0125955
Heightened Def Con from 0.0126283 to 0.0126283
Heightened Def Con from 0.0126762 to 0.0126762
Heightened Def Con from 0.0126914 to 0.0126914
Heightened Def Con from 0.0127242 to 0.0127242
Heightened Def Con from 0.0127242 to 0.0127242
Heightened Def Con from 0.0127394 to 0.0127394
Heightened Def Con from 0.0127722 to 0.0127722
Heightened Def Con from 0.0128202 to 0.0128202
Heightened Def Con from 0.0128202 to 0.0128202
Heightened Def Con from 0.0128354 to 0.0128354
Heightened Def Con from 0.0128683 to 0.0128683
Heightened Def Con from 0.0128683 to 0.0128683
Heightened Def Con from 0.0128834 to 0.0128834
Heightened Def Con from 0.0129163 to 0.0129163
Heightened Def Con from 0.0129163 to 0.0129163
Heightened Def Con from 0.0129644 to 0.0129644
Heightened Def Con from 0.0129644 to 0.0129644
Heightened Def Con from 0.0130125 to 0.0130125
Heightened Def Con from 0.0130606 to 0.0130606
Heightened Def Con from 0.0130757 to 0.0130757
Heightened Def Con from 0.0131087 to 0.0131087
Heightened Def Con from 0.0131087 to 0.0131087
Heightened Def Con from 0.0131568 to 0.0131568
Heightened Def Con from 0.013172 to 0.013172
Heightened Def Con from 0.013205 to 0.013205
Heightened Def Con from 0.0132201 to 0.0132201
Heightened Def Con from 0.0132532 to 0.0132532
Heightened Def Con from 0.0132683 to 0.0132683
Heightened Def Con from 0.0133014 to 0.0133015
Heightened Def Con from 0.0133166 to 0.0133166
Heightened Def Con from 0.0133497 to 0.0133498
Heightened Def Con from 0.0133498 to 0.0133498
Heightened Def Con from 0.0133649 to 0.0133649
Heightened Def Con from 0.0133985 to 0.0133985
Heightened Def Con from 0.0134137 to 0.0134137
Heightened Def Con from 0.0134474 to 0.0134474
Heightened Def Con from 0.0134963 to 0.0134963
Heightened Def Con from 0.0134963 to 0.0134963
Heightened Def Con from 0.0134963 to 0.0134963
Heightened Def Con from 0.0135115 to 0.0135115
Heightened Def Con from 0.0135453 to 0.0135453
Heightened Def Con from 0.0135453 to 0.0135454
Heightened Def Con from 0.0135605 to 0.0135605
Heightened Def Con from 0.0135944 to 0.0135944
Heightened Def Con from 0.0136435 to 0.0136435
Heightened Def Con from 0.0136927 to 0.0136927
Heightened Def Con from 0.0136927 to 0.0136927
Heightened Def Con from 0.0137418 to 0.0137418
Heightened Def Con from 0.0137418 to 0.0137419
Heightened Def Con from 0.013757 to 0.013757
Heightened Def Con from 0.013791 to 0.013791
Heightened Def Con from 0.0138062 to 0.0138062
Heightened Def Con from 0.0138402 to 0.0138402
Heightened Def Con from 0.0138402 to 0.0138402
Heightened Def Con from 0.0138553 to 0.0138554
Heightened Def Con from 0.0138894 to 0.0138895
Heightened Def Con from 0.0139045 to 0.0139046
Heightened Def Con from 0.0139387 to 0.0139387
Heightened Def Con from 0.0139387 to 0.0139387
Heightened Def Con from 0.0139879 to 0.0139879
Heightened Def Con from 0.0139879 to 0.0139879
Heightened Def Con from 0.0140371 to 0.0140371
Heightened Def Con from 0.0140522 to 0.0140522
Heightened Def Con from 0.0140864 to 0.0140864
Heightened Def Con from 0.0140864 to 0.0140864
Heightened Def Con from 0.0141356 to 0.0141356
Heightened Def Con from 0.0141507 to 0.0141507
Heightened Def Con from 0.0141849 to 0.0141849
Heightened Def Con from 0.0141849 to 0.0141849
Heightened Def Con from 0.0142 to 0.0142
Heightened Def Con from 0.0142341 to 0.0142342
Heightened Def Con from 0.0142342 to 0.0142342
Heightened Def Con from 0.0142492 to 0.0142492
Heightened Def Con from 0.0142834 to 0.0142834
Heightened Def Con from 0.0142985 to 0.0142985
Heightened Def Con from 0.0143327 to 0.0143327
Heightened Def Con from 0.0143478 to 0.0143478
Heightened Def Con from 0.0143821 to 0.0143821
Heightened Def Con from 0.0143821 to 0.0143821
Heightened Def Con from 0.0144314 to 0.0144314
Heightened Def Con from 0.0144314 to 0.0144314
Heightened Def Con from 0.0144807 to 0.0144808
Heightened Def Con from 0.0145301 to 0.0145301
Heightened Def Con from 0.0145301 to 0.0145301
Heightened Def Con from 0.0145451 to 0.0145452
Heightened Def Con from 0.0145795 to 0.0145795
Heightened Def Con from 0.0146289 to 0.0146289
Heightened Def Con from 0.0146783 to 0.0146783
Heightened Def Con from 0.0147278 to 0.0147278
Heightened Def Con from 0.0147278 to 0.0147278
Heightened Def Con from 0.0147278 to 0.0147278
Heightened Def Con from 0.0147772 to 0.0147772
Heightened Def Con from 0.0147772 to 0.0147773
Heightened Def Con from 0.0148267 to 0.0148268
Heightened Def Con from 0.0148418 to 0.0148418
Heightened Def Con from 0.0148763 to 0.0148763
Heightened Def Con from 0.0148763 to 0.0148763
Heightened Def Con from 0.0148914 to 0.0148914
Heightened Def Con from 0.0149264 to 0.0149264
Heightened Def Con from 0.0149415 to 0.0149415
Heightened Def Con from 0.0149766 to 0.0149767
Heightened Def Con from 0.0149917 to 0.0149917
Heightened Def Con from 0.0150269 to 0.0150269
Heightened Def Con from 0.0150772 to 0.0150772
Heightened Def Con from 0.0150772 to 0.0150772
Heightened Def Con from 0.0151275 to 0.0151275
Heightened Def Con from 0.0151275 to 0.0151275
Heightened Def Con from 0.0151778 to 0.0151778
Heightened Def Con from 0.0152281 to 0.0152282
Heightened Def Con from 0.0152785 to 0.0152785
Heightened Def Con from 0.0152785 to 0.0152785
Heightened Def Con from 0.0152936 to 0.0152936
Heightened Def Con from 0.0153289 to 0.0153289
Heightened Def Con from 0.0153289 to 0.0153289
Heightened Def Con from 0.015344 to 0.015344
Heightened Def Con from 0.0153794 to 0.0153794
Heightened Def Con from 0.0153794 to 0.0153794
Heightened Def Con from 0.0153945 to 0.0153945
Heightened Def Con from 0.0154298 to 0.0154298
Heightened Def Con from 0.0154298 to 0.0154299
Heightened Def Con from 0.0154449 to 0.0154449
Heightened Def Con from 0.0154803 to 0.0154803
Heightened Def Con from 0.0154803 to 0.0154803
Heightened Def Con from 0.0155307 to 0.0155307
Heightened Def Con from 0.0155458 to 0.0155458
Heightened Def Con from 0.0155812 to 0.0155812
Heightened Def Con from 0.0155812 to 0.0155812
Heightened Def Con from 0.0156317 to 0.0156317
Heightened Def Con from 0.0156317 to 0.0156317
Heightened Def Con from 0.0156468 to 0.0156468
Heightened Def Con from 0.0156822 to 0.0156822
Heightened Def Con from 0.0156973 to 0.0156973
Heightened Def Con from 0.0157327 to 0.0157327
Heightened Def Con from 0.0157327 to 0.0157327
Heightened Def Con from 0.0157832 to 0.0157832
Heightened Def Con from 0.0158337 to 0.0158337
Heightened Def Con from 0.0158488 to 0.0158488
Heightened Def Con from 0.0158842 to 0.0158842
Heightened Def Con from 0.0158842 to 0.0158842
Heightened Def Con from 0.0159348 to 0.0159348
Heightened Def Con from 0.0159498 to 0.0159498
Heightened Def Con from 0.0159853 to 0.0159853
Heightened Def Con from 0.0160358 to 0.0160358
Heightened Def Con from 0.0160358 to 0.0160358
Heightened Def Con from 0.0160508 to 0.0160509
Heightened Def Con from 0.0160863 to 0.0160863
Heightened Def Con from 0.0161369 to 0.0161369
Heightened Def Con from 0.0161369 to 0.0161369
Heightened Def Con from 0.0161874 to 0.0161874
Heightened Def Con from 0.0161874 to 0.0161875
Heightened Def Con from 0.0162024 to 0.0162025
Heightened Def Con from 0.016238 to 0.016238
Heightened Def Con from 0.016238 to 0.016238
Heightened Def Con from 0.016253 to 0.016253
Heightened Def Con from 0.0162885 to 0.0162885
Heightened Def Con from 0.0162885 to 0.0162886
Heightened Def Con from 0.0163391 to 0.0163391
Heightened Def Con from 0.0163391 to 0.0163391
Heightened Def Con from 0.0163541 to 0.0163542
Heightened Def Con from 0.0163897 to 0.0163897
Heightened Def Con from 0.0163897 to 0.0163897
Heightened Def Con from 0.0164047 to 0.0164047
Heightened Def Con from 0.0164403 to 0.0164403
Heightened Def Con from 0.0164553 to 0.0164553
Heightened Def Con from 0.0164909 to 0.0164909
Heightened Def Con from 0.0164909 to 0.0164909
Heightened Def Con from 0.0165059 to 0.0165059
Heightened Def Con from 0.0165415 to 0.0165415
Heightened Def Con from 0.0165415 to 0.0165415
Heightened Def Con from 0.0165565 to 0.0165565
Heightened Def Con from 0.0165921 to 0.0165921
Heightened Def Con from 0.0166071 to 0.0166071
Heightened Def Con from 0.0166427 to 0.0166427
Heightened Def Con from 0.0166427 to 0.0166427
Heightened Def Con from 0.0166933 to 0.0166934
Heightened Def Con from 0.0166934 to 0.0166934
Heightened Def Con from 0.016744 to 0.016744
Heightened Def Con from 0.016744 to 0.016744
Heightened Def Con from 0.016759 to 0.016759
Heightened Def Con from 0.0167947 to 0.0167947
Heightened Def Con from 0.0168097 to 0.0168097
Heightened Def Con from 0.0168453 to 0.0168453
Heightened Def Con from 0.0168453 to 0.0168453
Heightened Def Con from 0.016896 to 0.016896
Heightened Def Con from 0.016896 to 0.016896
Heightened Def Con from 0.0169467 to 0.0169467
Heightened Def Con from 0.0169974 to 0.0169974
Heightened Def Con from 0.0169974 to 0.0169974
Heightened Def Con from 0.0170124 to 0.0170124
Heightened Def Con from 0.0170481 to 0.0170481
Heightened Def Con from 0.0170481 to 0.0170481
Heightened Def Con from 0.0170989 to 0.0170989
Heightened Def Con from 0.0171138 to 0.0171139
Heightened Def Con from 0.0171496 to 0.0171496
Heightened Def Con from 0.0172004 to 0.0172004
Heightened Def Con from 0.0172004 to 0.0172004
Heightened Def Con from 0.0172154 to 0.0172154
Heightened Def Con from 0.0172512 +to 0.0172512
Heightened Def Con from 0.0173021 to 0.0173021
Heightened Def Con from 0.0173536 to 0.0173536
Heightened Def Con from 0.0174051 to 0.0174051
Heightened Def Con from 0.0174051 to 0.0174051
Heightened Def Con from 0.0174566 to 0.0174566
Heightened Def Con from 0.0174566 to 0.0174566
Heightened Def Con from 0.0175082 to 0.0175082
Heightened Def Con from 0.0175082 to 0.0175082
Heightened Def Con from 0.0175232 to 0.0175232
Heightened Def Con from 0.0175598 to 0.0175598
Heightened Def Con from 0.0175598 to 0.0175598
Heightened Def Con from 0.0175748 to 0.0175748
Heightened Def Con from 0.0176114 to 0.0176114
Heightened Def Con from 0.0176264 to 0.0176264
Heightened Def Con from 0.017663 to 0.017663
Heightened Def Con from 0.017663 to 0.017663
Heightened Def Con from 0.017678 to 0.017678
Heightened Def Con from 0.0177146 to 0.0177146
Heightened Def Con from 0.0177146 to 0.0177146
Heightened Def Con from 0.0177663 to 0.0177663
Heightened Def Con from 0.0177663 to 0.0177663
Heightened Def Con from 0.0177813 to 0.0177813
Heightened Def Con from 0.0178179 to 0.0178179
Heightened Def Con from 0.0178179 to 0.017818
Heightened Def Con from 0.0178696 to 0.0178696
Heightened Def Con from 0.0178696 to 0.0178696
Heightened Def Con from 0.0179213 to 0.0179213
Heightened Def Con from 0.017973 to 0.017973
Heightened Def Con from 0.017988 to 0.0179881
Heightened Def Con from 0.0180248 to 0.0180248
Heightened Def Con from 0.0180248 to 0.0180248
Heightened Def Con from 0.0180765 +to 0.0180765
Heightened Def Con from 0.0180915 to 0.0180916
Heightened Def Con from 0.0181283 to 0.0181283
Heightened Def Con from 0.0181801 to 0.0181801
Heightened Def Con from 0.0182318 to 0.0182318
Heightened Def Con from 0.0182318 to 0.0182319
Heightened Def Con from 0.0182469 to 0.0182469
Heightened Def Con from 0.0182836 to 0.0182836
Heightened Def Con from 0.0182836 to 0.0182836
Heightened Def Con from 0.0183354 to 0.0183354
Heightened Def Con from 0.0183354 to 0.0183354
Heightened Def Con from 0.0183504 to 0.0183504
Heightened Def Con from 0.0183872 to 0.0183872
Heightened Def Con from 0.0183872 to 0.0183872
Heightened Def Con from 0.018439 to 0.018439
Heightened Def Con from 0.0184908 to 0.0184908
Heightened Def Con from 0.0185426 to 0.0185426
Heightened Def Con from 0.0185576 to 0.0185576
Heightened Def Con from 0.0185944 to 0.0185944
Heightened Def Con from 0.0186094 to 0.0186094
Heightened Def Con from 0.0186462 to 0.0186462
Heightened Def Con from 0.0186462 to 0.0186462
Heightened Def Con from 0.018698 to 0.018698
Heightened Def Con from 0.018698 to 0.018698
Heightened Def Con from 0.018713 to 0.018713
Heightened Def Con from 0.0187498 to 0.0187498
Heightened Def Con from 0.0187498 to 0.0187498
Heightened Def Con from 0.0187648 to 0.0187648
Heightened Def Con from 0.0188016 to 0.0188016
Heightened Def Con from 0.0188166 to 0.0188166
Heightened Def Con from 0.0188534 to 0.0188534
Heightened Def Con from 0.0188534 to 0.0188535
Heightened Def Con from 0.0189053 to 0.0189053
Heightened Def Con from 0.0189053 to 0.0189053
Heightened Def Con from 0.0189571 to 0.0189571
Heightened Def Con from 0.0189721 to 0.0189721
Heightened Def Con from 0.019009 to 0.019009
Heightened Def Con from 0.019009 to 0.019009
Heightened Def Con from 0.0190608 to 0.0190608
Heightened Def Con from 0.0190758 to 0.0190758
Heightened Def Con from 0.0191126 to 0.0191126
Heightened Def Con from 0.0191126 to 0.0191127
Heightened Def Con from 0.0191276 to 0.0191276
Heightened Def Con from 0.0191645 to 0.0191645
Heightened Def Con from 0.0192163 to 0.0192163
Heightened Def Con from 0.0192163 to 0.0192163
Heightened Def Con from 0.0192313 to 0.0192313
Heightened Def Con from 0.0192682 to 0.0192682
Heightened Def Con from 0.0192682 to 0.0192682
Heightened Def Con from 0.0192832 to 0.0192832
Heightened Def Con from 0.0193201 to 0.0193201
Heightened Def Con from 0.0193201 to 0.0193201
Heightened Def Con from 0.019335 to 0.0193351
Heightened Def Con from 0.0193719 to 0.0193719
Heightened Def Con from 0.0193719 to 0.019372
Heightened Def Con from 0.0194238 to 0.0194238
Heightened Def Con from 0.0194238 to 0.0194238
Heightened Def Con from 0.0194388 to 0.0194388
Heightened Def Con from 0.0194757 to 0.0194757
Heightened Def Con from 0.0194757 to 0.0194757
Heightened Def Con from 0.0194907 to 0.0194907
Heightened Def Con from 0.0195276 to 0.0195276
Heightened Def Con from 0.0195276 to 0.0195276
Heightened Def Con from 0.0195795 to 0.0195795
Heightened Def Con from 0.0195795 to 0.0195795
Heightened Def Con from 0.0196314 to 0.0196314
Heightened Def Con from 0.0196833 to 0.0196833
Heightened Def Con from 0.0196833 to 0.0196833
Heightened Def Con from 0.0196982 to 0.0196983
Heightened Def Con from 0.0197352 to 0.0197352
Heightened Def Con from 0.0197352 to 0.0197352
Heightened Def Con from 0.0197871 to 0.0197871
Heightened Def Con from 0.0197871 to 0.0197871
Heightened Def Con from 0.019839 to 0.019839
Heightened Def Con from 0.019839 to 0.019839
Heightened Def Con from 0.0198909 to 0.0198909
Heightened Def Con from 0.0199059 to 0.0199059
Heightened Def Con from 0.020099 to 0.020099
Heightened Def Con from 0.020151 to 0.020151
Heightened Def Con from 0.0202028 to 0.0202028
Heightened Def Con from 0.0202178 to 0.0202178
Heightened Def Con from 0.0202548 to 0.0202548
Heightened Def Con from 0.0202697 to 0.0202697
Heightened Def Con from 0.0203067 to 0.0203067
Heightened Def Con from 0.0203586 to 0.0203586
Heightened Def Con from 0.0203586 to 0.0203586
Heightened Def Con from 0.0204105 to 0.0204105
Heightened Def Con from 0.0204255 to 0.0204255
Heightened Def Con from 0.0204625 to 0.0204625
Heightened Def Con from 0.0204625 to 0.0204625
Heightened Def Con from 0.0204774 to 0.0204774
Heightened Def Con from 0.0205144 to 0.0205144
Heightened Def Con from 0.0205294 to 0.0205294
Heightened Def Con from 0.0205663 to 0.0205663
Heightened Def Con from 0.0206182 to 0.0206182
Heightened Def Con from 0.0206182 to 0.0206183
Heightened Def Con from 0.0206332 to 0.0206332
Heightened Def Con from 0.0206702 to 0.0206702
Heightened Def Con from 0.0206702 to 0.0206702
Heightened Def Con from 0.0206851 to 0.0206851
Heightened Def Con from 0.0207221 to 0.0207221
Heightened Def Con from 0.0207371 to 0.0207371
Heightened Def Con from 0.020774 to 0.0207741
Heightened Def Con from 0.020789 to 0.020789
Heightened Def Con from 0.020826 to 0.020826
Heightened Def Con from 0.020826 to 0.020826
Heightened Def Con from 0.0208409 to 0.020841
Heightened Def Con from 0.0208779 to 0.0208779
Heightened Def Con from 0.0208779 to 0.0208779
Heightened Def Con from 0.0209299 to 0.0209299
Heightened Def Con from 0.0209299 to 0.0209299
Heightened Def Con from 0.0209448 to 0.0209448
Heightened Def Con from 0.0209818 to 0.0209818
Heightened Def Con from 0.0209818 to 0.0209818
Heightened Def Con from 0.0209968 to 0.0209968
Heightened Def Con from 0.0210338 to 0.0210338
Heightened Def Con from 0.0210487 to 0.0210487
Heightened Def Con from 0.0210857 to 0.0210857
Heightened Def Con from 0.0210857 to 0.0210857
Heightened Def Con from 0.0211006 to 0.0211007
Heightened Def Con from 0.0211376 to 0.0211376
Heightened Def Con from 0.0211376 to 0.0211377
Heightened Def Con from 0.0211896 to 0.0211896
Heightened Def Con from 0.0211896 to 0.0211896
Heightened Def Con from 0.0212415 to 0.0212415
Heightened Def Con from 0.0212415 to 0.0212415
Heightened Def Con from 0.0212935 to 0.0212935
Heightened Def Con from 0.0213084 to 0.0213084
Heightened Def Con from 0.0213454 to 0.0213454
Heightened Def Con from 0.0213454 to 0.0213454
Heightened Def Con from 0.0213974 to 0.0213974
Heightened Def Con from 0.0213974 to 0.0213974
Heightened Def Con from 0.0214493 to 0.0214493
Heightened Def Con from 0.0214493 to 0.0214493
Heightened Def Con from 0.0214643 to 0.0214643
Heightened Def Con from 0.0215013 to 0.0215013
Heightened Def Con from 0.0215162 to 0.0215162
Heightened Def Con from 0.0215532 to 0.0215532
Heightened Def Con from 0.0215532 to 0.0215532
Heightened Def Con from 0.0216052 to 0.0216052
Heightened Def Con from 0.0216052 to 0.0216052
Heightened Def Con from 0.0216201 to 0.0216201
Heightened Def Con from 0.0216571 +to 0.0216571
Heightened Def Con from 0.0216721 to 0.0216721
Heightened Def Con from 0.0217091 to 0.0217091
Heightened Def Con from 0.0217091 to 0.0217091
Heightened Def Con from 0.021724 to 0.021724
Heightened Def Con from 0.021761 to 0.021761
Heightened Def Con from 0.021761 to 0.021761
Heightened Def Con from 0.021776 to 0.021776
Heightened Def Con from 0.021813 to 0.021813
Heightened Def Con from 0.021813 to 0.021813
Heightened Def Con from 0.0218279 to 0.0218279
Heightened Def Con from 0.0218649 to 0.0218649
Heightened Def Con from 0.0218649 to 0.0218649
Heightened Def Con from 0.0218798 to 0.0218798
Heightened Def Con from 0.0219168 to 0.0219168
Heightened Def Con from 0.0219168 to 0.0219168
Heightened Def Con from 0.0219318 to 0.0219318
Heightened Def Con from 0.0219688 to 0.0219688
Heightened Def Con from 0.0219688 to 0.0219688
Heightened Def Con from 0.0219837 to 0.0219837
Heightened Def Con from 0.0220207 to 0.0220208
Heightened Def Con from 0.0220727 to 0.0220727
Heightened Def Con from 0.0220876 to 0.0220877
Heightened Def Con from 0.0221247 to 0.0221247
Heightened Def Con from 0.0221396 to 0.0221396
Heightened Def Con from 0.0221766 to 0.0221766
Heightened Def Con from 0.0221766 to 0.0221766
Heightened Def Con from 0.0222286 to 0.0222286
Heightened Def Con from 0.0222286 to 0.0222286
Heightened Def Con from 0.0222435 to 0.0222435
Heightened Def Con from 0.0222805 to 0.0222805
Heightened Def Con from 0.0223325 to 0.0223325
Heightened Def Con from 0.0223325 to 0.0223325
Heightened Def Con from 0.0223844 to 0.0223844
Heightened Def Con from 0.0223844 to 0.0223844
Heightened Def Con from 0.0223994 to 0.0223994
Heightened Def Con from 0.0224364 to 0.0224364
Heightened Def Con from 0.0224883 to 0.0224883
Heightened Def Con from 0.0224883 to 0.0224883
Heightened Def Con from 0.0225032 to 0.0225032
Heightened Def Con from 0.0225402 to 0.0225402
Heightened Def Con from 0.0225402 to 0.0225402
Heightened Def Con from 0.0225552 to 0.0225552
Heightened Def Con from 0.0225921 to 0.0225921
Heightened Def Con from 0.0225921 to 0.0225922
Heightened Def Con from 0.0226441 to 0.0226441
Heightened Def Con from 0.0226441 to 0.0226441
Heightened Def Con from 0.022696 to 0.022696
Heightened Def Con from 0.022696 to 0.022696
Heightened Def Con from 0.022711 to 0.022711
Heightened Def Con from 0.022748 to 0.022748
Heightened Def Con from 0.022748 to 0.022748
Heightened Def Con from 0.0227629 to 0.0227629
Heightened Def Con from 0.0227999 to 0.0227999
Heightened Def Con from 0.0227999 to 0.0227999
Heightened Def Con from 0.0228518 to 0.0228518
Heightened Def Con from 0.0228518 to 0.0228518
Heightened Def Con from 0.0228668 to 0.0228668
Heightened Def Con from 0.0229037 to 0.0229037
Heightened Def Con from 0.0229037 to 0.0229037
Heightened Def Con from 0.0229187 to 0.0229187
Heightened Def Con from 0.0229557 to 0.0229557
Heightened Def Con from 0.0229706 to 0.0229706
Heightened Def Con from 0.0230076 to 0.0230076
Heightened Def Con from 0.0230076 to 0.0230076
Heightened Def Con from 0.0230595 to 0.0230595
Heightened Def Con from 0.0230745 to 0.0230745
Heightened Def Con from 0.0231114 to 0.0231115
Heightened Def Con from 0.0231115 to 0.0231115
Heightened Def Con from 0.0231264 to 0.0231264
Heightened Def Con from 0.0231634 to 0.0231634
Heightened Def Con from 0.0231783 to 0.0231783
Heightened Def Con from 0.0232153 to 0.0232153
Heightened Def Con from 0.0232153 to 0.0232153
Heightened Def Con from 0.0232673 to 0.0232673
Heightened Def Con from 0.0232673 to 0.0232673
Heightened Def Con from 0.0232822 to 0.0232822
Heightened Def Con from 0.0233192 to 0.0233192
Heightened Def Con from 0.0233192 to 0.0233192
Heightened Def Con from 0.0233712 to 0.0233712
Heightened Def Con from 0.0233712 to 0.0233712
Heightened Def Con from 0.0233861 to 0.0233861
Heightened Def Con from 0.0234231 to 0.0234231
Heightened Def Con from 0.023438 to 0.023438
Heightened Def Con from 0.023475 to 0.0234751
Heightened Def Con from 0.02349 to 0.02349
Heightened Def Con from 0.023527 to 0.023527
Heightened Def Con from 0.023527 to 0.023527
Heightened Def Con from 0.0235789 to 0.0235789
Heightened Def Con from 0.0235939 to 0.0235939
Heightened Def Con from 0.0236309 to 0.0236309
Heightened Def Con from 0.0236458 to 0.0236458
Heightened Def Con from 0.0236828 to 0.0236828
Heightened Def Con from 0.0236828 to 0.0236828
Heightened Def Con from 0.0237348 to 0.0237348
Heightened Def Con from 0.0237348 to 0.0237348
Heightened Def Con from 0.0237867 to 0.0237867
Heightened Def Con from 0.0238017 to 0.0238017
Heightened Def Con from 0.0238387 to 0.0238387
Heightened Def Con from 0.0238387 to 0.0238387
Heightened Def Con from 0.0238536 to 0.0238536
Heightened Def Con from 0.0238906 to 0.0238906
Heightened Def Con from 0.0239426 to 0.0239426
Heightened Def Con from 0.0239426 to 0.0239426
Heightened Def Con from 0.0239945 to 0.0239945
Heightened Def Con from 0.0239945 to 0.0239945
Heightened Def Con from 0.0240095 to 0.0240095
Heightened Def Con from 0.0240465 to 0.0240465
Heightened Def Con from 0.0240465 to 0.0240465
Heightened Def Con from 0.0240614 to 0.0240614
Heightened Def Con from 0.0240984 to 0.0240984
Heightened Def Con from 0.0241504 to 0.0241504
Heightened Def Con from 0.0241653 to 0.0241653
Heightened Def Con from 0.0242023 to 0.0242023
Heightened Def Con from 0.0242543 to 0.0242543
Heightened Def Con from 0.0242543 to 0.0242543
Heightened Def Con from 0.0242692 to 0.0242692
Heightened Def Con from 0.0243063 to 0.0243063
Heightened Def Con from 0.0243212 to 0.0243212
Heightened Def Con from 0.0243582 to 0.0243582
Heightened Def Con from 0.0243732 to 0.0243732
Heightened Def Con from 0.0244102 to 0.0244102
Heightened Def Con from 0.0244622 to 0.0244622
Heightened Def Con from 0.0244771 to 0.0244771
Heightened Def Con from 0.0245141 to 0.0245141
Heightened Def Con from 0.0245661 to 0.0245661
Heightened Def Con from 0.024581 to 0.024581
Heightened Def Con from 0.024618 to 0.024618
Heightened Def Con from 0.024618 to 0.024618
Heightened Def Con from 0.024633 to 0.024633
Heightened Def Con from 0.02467 to 0.02467
Heightened Def Con from 0.02467 to 0.02467
Heightened Def Con from 0.024722 to 0.024722
Heightened Def Con from 0.024722 to 0.024722
Heightened Def Con from 0.0247369 to 0.0247369
Heightened Def Con from 0.0247739 to 0.0247739
Heightened Def Con from 0.0247889 to 0.0247889
Heightened Def Con from 0.0248259 to 0.0248259
Heightened Def Con from 0.0248259 to 0.0248259
Heightened Def Con from 0.0248408 to 0.0248409
Heightened Def Con from 0.0248779 to 0.0248779
Heightened Def Con from 0.0248779 to 0.0248779
Heightened Def Con from 0.0248928 to 0.0248928
Heightened Def Con from 0.0249299 to 0.0249299
Heightened Def Con from 0.0249299 to 0.0249299
Heightened Def Con from 0.0249818 to 0.0249818
Heightened Def Con from 0.0250338 to 0.0250338
Heightened Def Con from 0.0250858 to 0.0250858
Heightened Def Con from 0.0251007 to 0.0251007
Heightened Def Con from 0.0251377 to 0.0251377
Heightened Def Con from 0.0251897 to 0.0251897
Heightened Def Con from 0.0252046 to 0.0252046
Heightened Def Con from 0.0252416 to 0.0252416
Heightened Def Con from 0.0252566 to 0.0252566
Heightened Def Con from 0.0252936 +to 0.0252936
Heightened Def Con from 0.0253086 to 0.0253086
Heightened Def Con from 0.0253456 to 0.0253456
Heightened Def Con from 0.0253605 to 0.0253605
Heightened Def Con from 0.0253976 to 0.0253976
Heightened Def Con from 0.0253976 to 0.0253976
Heightened Def Con from 0.0254495 to 0.0254495
Heightened Def Con from 0.0254495 to 0.0254496
Heightened Def Con from 0.0255015 to 0.0255015
Heightened Def Con from 0.0255535 to 0.0255535
Heightened Def Con from 0.0255535 to 0.0255535
Heightened Def Con from 0.0256055 to 0.0256055
Heightened Def Con from 0.0256055 to 0.0256055
Heightened Def Con from 0.0256204 to 0.0256204
Heightened Def Con from 0.0256574 to 0.0256574
Heightened Def Con from 0.0256574 to 0.0256574
Heightened Def Con from 0.0256724 to 0.0256724
Heightened Def Con from 0.0257094 to 0.0257094
Heightened Def Con from 0.0257094 to 0.0257094
Heightened Def Con from 0.0257243 to 0.0257243
Heightened Def Con from 0.0257614 to 0.0257614
Heightened Def Con from 0.0257614 to 0.0257614
Heightened Def Con from 0.0258134 to 0.0258134
Heightened Def Con from 0.0258134 to 0.0258134
Heightened Def Con from 0.0258283 to 0.0258283
Heightened Def Con from 0.0258654 to 0.0258654
Heightened Def Con from 0.0258803 to 0.0258803
Heightened Def Con from 0.0259173 to 0.0259173
Heightened Def Con from 0.0259173 to 0.0259173
Heightened Def Con from 0.0259323 to 0.0259323
Heightened Def Con from 0.0259693 to 0.0259693
Heightened Def Con from 0.0259693 to 0.0259693
Heightened Def Con from 0.0259842 to 0.0259843
Heightened Def Con from 0.0260213 to 0.0260213
Heightened Def Con from 0.0260213 to 0.0260213
Heightened Def Con from 0.0260733 to 0.0260733
Heightened Def Con from 0.0261253 to 0.0261253
Heightened Def Con from 0.0261402 to 0.0261402
Heightened Def Con from 0.0261773 to 0.0261773
Heightened Def Con from 0.0261922 to 0.0261922
Heightened Def Con from 0.0262292 to 0.0262293
Heightened Def Con from 0.0262293 to 0.0262293
Heightened Def Con from 0.0262442 to 0.0262442
Heightened Def Con from 0.0262813 to 0.0262813
Heightened Def Con from 0.0262962 to 0.0262962
Heightened Def Con from 0.0263333 to 0.0263333
Heightened Def Con from 0.0263853 to 0.0263853
Heightened Def Con from 0.0264373 to 0.0264373
Heightened Def Con from 0.0264893 to 0.0264893
Heightened Def Con from 0.0264893 to 0.0264893
Heightened Def Con from 0.0265042 to 0.0265042
Heightened Def Con from 0.0265413 to 0.0265413
Heightened Def Con from 0.0265413 to 0.0265413
Heightened Def Con from 0.0265562 to 0.0265562
Heightened Def Con from 0.0265933 to 0.0265933
Heightened Def Con from 0.0265933 to 0.0265933
Heightened Def Con from 0.0266453 to 0.0266453
Heightened Def Con from 0.0266602 to 0.0266603
Heightened Def Con from 0.0266973 to 0.0266973
Heightened Def Con from 0.0267494 to 0.0267494
Heightened Def Con from 0.0267494 to 0.0267494
Heightened Def Con from 0.0268014 to 0.0268014
Heightened Def Con from 0.0268534 to 0.0268534
Heightened Def Con from 0.0268534 to 0.0268534
Heightened Def Con from 0.0269054 to 0.0269054
Heightened Def Con from 0.0269054 to 0.0269054
Heightened Def Con from 0.0269204 to 0.0269204
Heightened Def Con from 0.0269575 to 0.0269575
Heightened Def Con from 0.0269575 to 0.0269575
Heightened Def Con from 0.0269724 to 0.0269724
Heightened Def Con from 0.0270095 to 0.0270095
Heightened Def Con from 0.0270615 to 0.0270616
Heightened Def Con from 0.0270765 to 0.0270765
Heightened Def Con from 0.0271136 to 0.0271136
Heightened Def Con from 0.0271136 to 0.0271136
Heightened Def Con from 0.0271656 to 0.0271656
Heightened Def Con from 0.0271656 to 0.0271656
Heightened Def Con from 0.0271806 to 0.0271806
Heightened Def Con from 0.0272177 +to 0.0272177
Heightened Def Con from 0.0272326 to 0.0272326
Heightened Def Con from 0.0272697 to 0.0272697
Heightened Def Con from 0.0272697 to 0.0272697
Heightened Def Con from 0.0272846 to 0.0272846
Heightened Def Con from 0.0273217 to 0.0273217
Heightened Def Con from 0.0273217 to 0.0273218
Heightened Def Con from 0.0273367 to 0.0273367
Heightened Def Con from 0.0273738 to 0.0273738
Heightened Def Con from 0.0273887 to 0.0273887
Heightened Def Con from 0.0274258 to 0.0274258
Heightened Def Con from 0.0274408 to 0.0274408
Heightened Def Con from 0.0274779 to 0.0274779
Heightened Def Con from 0.0274779 to 0.0274779
Heightened Def Con from 0.0275299 to 0.02753
Heightened Def Con from 0.02753 to 0.02753
Heightened Def Con from 0.027582 to 0.027582
Heightened Def Con from 0.027597 to 0.027597
Heightened Def Con from 0.0276341 to 0.0276341
Heightened Def Con from 0.0276341 to 0.0276341
Heightened Def Con from 0.027649 to 0.027649
Heightened Def Con from 0.0276862 to 0.0276862
Heightened Def Con from 0.0277011 to 0.0277011
Heightened Def Con from 0.0277382 to 0.0277382
Heightened Def Con from 0.0277532 to 0.0277532
Heightened Def Con from 0.0277903 to 0.0277903
Heightened Def Con from 0.0277903 to 0.0277903
Heightened Def Con from 0.0278424 to 0.0278424
Heightened Def Con from 0.0278424 to 0.0278424
Heightened Def Con from 0.0278574 to 0.0278574
Heightened Def Con from 0.0278945 to 0.0278945
Heightened Def Con from 0.0278945 to 0.0278946
Heightened Def Con from 0.0279095 to 0.0279095
Heightened Def Con from 0.0279467 to 0.0279467
Heightened Def Con from 0.0279467 to 0.0279467
Heightened Def Con from 0.0279616 to 0.0279616
Heightened Def Con from 0.0279988 to 0.0279988
Heightened Def Con from 0.0280137 to 0.0280137
Heightened Def Con from 0.0280509 +to 0.0280509
Heightened Def Con from 0.0280658 to 0.0280658
Heightened Def Con from 0.028103 to 0.028103
Heightened Def Con from 0.028103 to 0.028103
Heightened Def Con from 0.028118 to 0.028118
Heightened Def Con from 0.0281552 to 0.0281552
Heightened Def Con from 0.0281552 to 0.0281552
Heightened Def Con from 0.0281701 to 0.0281701
Heightened Def Con from 0.0282073 to 0.0282073
Heightened Def Con from 0.0282222 to 0.0282222
Heightened Def Con from 0.0282594 to 0.0282594
Heightened Def Con from 0.0282594 to 0.0282594
Heightened Def Con from 0.0283116 to 0.0283116
Heightened Def Con from 0.0283265 to 0.0283265
Heightened Def Con from 0.0283637 to 0.0283637
Heightened Def Con from 0.0283637 to 0.0283637
Heightened Def Con from 0.0284158 to 0.0284158
Heightened Def Con from 0.0284158 to 0.0284158
Heightened Def Con from 0.0284687 to 0.0284687
Heightened Def Con from 0.0284836 to 0.0284836
Heightened Def Con from 0.0285208 to 0.0285209
Heightened Def Con from 0.0285737 to 0.0285737
Heightened Def Con from 0.0285887 to 0.0285887
Heightened Def Con from 0.0286266 to 0.0286266
Heightened Def Con from 0.0286794 to 0.0286795
Heightened Def Con from 0.0287323 to 0.0287323
Heightened Def Con from 0.0287323 to 0.0287323
Heightened Def Con from 0.0287473 to 0.0287473
Heightened Def Con from 0.0287852 to 0.0287852
Heightened Def Con from 0.0287852 to 0.0287852
Heightened Def Con from 0.0288002 to 0.0288002
Heightened Def Con from 0.0288381 to 0.0288381
Heightened Def Con from 0.0288381 to 0.0288381
Heightened Def Con from 0.028891 to 0.028891
Heightened Def Con from 0.028891 to 0.028891
Heightened Def Con from 0.0289439 to 0.0289439
Heightened Def Con from 0.0289967 to 0.0289968
Heightened Def Con from 0.0289968 to 0.0289968
Heightened Def Con from 0.0290496 to 0.0290496
Heightened Def Con from 0.0290496 to 0.0290496
Heightened Def Con from 0.0290646 to 0.0290646
Heightened Def Con from 0.0291025 to 0.0291026
Heightened Def Con from 0.0291175 to 0.0291175
Heightened Def Con from 0.0291554 to 0.0291554
Heightened Def Con from 0.0291554 to 0.0291555
Heightened Def Con from 0.0292084 to 0.0292084
Heightened Def Con from 0.0292613 to 0.0292613
Heightened Def Con from 0.0292613 to 0.0292613
Heightened Def Con from 0.0292762 to 0.0292763
Heightened Def Con from 0.0293142 to 0.0293142
Heightened Def Con from 0.0293142 to 0.0293142
Heightened Def Con from 0.0293292 to 0.0293292
Heightened Def Con from 0.0293671 to 0.0293671
Heightened Def Con from 0.0293821 to 0.0293821
Heightened Def Con from 0.0294201 to 0.0294201
Heightened Def Con from 0.029473 to 0.029473
Heightened Def Con from 0.029473 to 0.029473
Heightened Def Con from 0.0295259 to 0.029526
Heightened Def Con from 0.0295789 to 0.0295789
Heightened Def Con from 0.0295789 to 0.0295789
Heightened Def Con from 0.0295938 to 0.0295939
Heightened Def Con from 0.0296318 to 0.0296318
Heightened Def Con from 0.0296318 to 0.0296318
Heightened Def Con from 0.0296468 to 0.0296468
Heightened Def Con from 0.0296847 to 0.0296847
Heightened Def Con from 0.0296847 to 0.0296848
Heightened Def Con from 0.0296997 to 0.0296997
Heightened Def Con from 0.0297377 to 0.0297377
Heightened Def Con from 0.0297377 to 0.0297377
Heightened Def Con from 0.0297906 to 0.0297906
Heightened Def Con from 0.0298435 to 0.0298436
Heightened Def Con from 0.0298585 to 0.0298585
Heightened Def Con from 0.0298965 to 0.0298965
Heightened Def Con from 0.0299114 to 0.0299114
Heightened Def Con from 0.0301076 to 0.0301076
Heightened Def Con from 0.0301606 to 0.0301606
Heightened Def Con from 0.0301606 to 0.0301606
Heightened Def Con from 0.0302131 to 0.0302131
Heightened Def Con from 0.030228 to 0.030228
Heightened Def Con from 0.030266 to 0.030266
Heightened Def Con from 0.030266 to 0.0302661
Heightened Def Con from 0.030319 to 0.030319
Heightened Def Con from 0.030334 to 0.030334
Heightened Def Con from 0.030372 to 0.030372
Heightened Def Con from 0.030372 to 0.030372
Heightened Def Con from 0.030387 to 0.030387
Heightened Def Con from 0.030425 to 0.030425
Heightened Def Con from 0.030425 to 0.030425
Heightened Def Con from 0.0304399 to 0.03044
Heightened Def Con from 0.030478 to 0.030478
Heightened Def Con from 0.0305309 to 0.0305309
Heightened Def Con from 0.030531 to 0.030531
Heightened Def Con from 0.0305459 to 0.0305459
Heightened Def Con from 0.0305839 to 0.0305839
Heightened Def Con from 0.0305989 to 0.0305989
Heightened Def Con from 0.0306369 to 0.0306369
Heightened Def Con from 0.0306899 to 0.0306899
Heightened Def Con from 0.03069 to 0.03069
Heightened Def Con from 0.0307049 to 0.0307049
Heightened Def Con from 0.030743 to 0.030743
Heightened Def Con from 0.0307579 to 0.0307579
Heightened Def Con from 0.0307959 to 0.0307959
Heightened Def Con from 0.0307959 to 0.030796
Heightened Def Con from 0.0308109 to 0.0308109
Heightened Def Con from 0.0308489 to 0.0308489
Heightened Def Con from 0.0309019 to 0.0309019
Heightened Def Con from 0.0309019 to 0.0309019
Heightened Def Con from 0.0309549 to 0.0309549
Heightened Def Con from 0.0310079 to 0.0310079
Heightened Def Con from 0.0310079 to 0.0310079
Heightened Def Con from 0.0310608 to 0.0310608
Heightened Def Con from 0.0310608 to 0.0310608
Heightened Def Con from 0.0310758 to 0.0310758
Heightened Def Con from 0.0311138 to 0.0311138
Heightened Def Con from 0.0311138 to 0.0311138
Heightened Def Con from 0.0311668 to 0.0311668
Heightened Def Con from 0.0311668 to 0.0311668
Heightened Def Con from 0.0311817 to 0.0311818
Heightened Def Con from 0.0312197 to 0.0312198
Heightened Def Con from 0.0312347 to 0.0312347
Heightened Def Con from 0.0312727 to 0.0312727
Heightened Def Con from 0.0312877 to 0.0312877
Heightened Def Con from 0.0313257 to 0.0313257
Heightened Def Con from 0.0313406 to 0.0313407
Heightened Def Con from 0.0313787 to 0.0313787
Heightened Def Con from 0.0313936 to 0.0313936
Heightened Def Con from 0.0314316 to 0.0314316
Heightened Def Con from 0.0314845 to 0.0314845
Heightened Def Con from 0.0314845 to 0.0314846
Heightened Def Con from 0.0315375 to 0.0315375
Heightened Def Con from 0.0315524 to 0.0315525
Heightened Def Con from 0.0315904 to 0.0315904
Heightened Def Con from 0.0316054 to 0.0316054
Heightened Def Con from 0.0316434 to 0.0316434
Heightened Def Con from 0.0316434 to 0.0316434
Heightened Def Con from 0.0316583 to 0.0316584
Heightened Def Con from 0.0316963 to 0.0316963
Heightened Def Con from 0.0316963 to 0.0316964
Heightened Def Con from 0.0317493 to 0.0317493
Heightened Def Con from 0.0317493 to 0.0317493
Heightened Def Con from 0.0318022 to 0.0318022
Heightened Def Con from 0.0318172 to 0.0318172
Heightened Def Con from 0.0318551 to 0.0318551
Heightened Def Con from 0.0318551 to 0.0318552
Heightened Def Con from 0.0318701 to 0.0318701
Heightened Def Con from 0.0319081 to 0.0319081
Heightened Def Con from 0.0319081 to 0.0319081
Heightened Def Con from 0.031923 to 0.031923
Heightened Def Con from 0.031961 to 0.031961
Heightened Def Con from 0.031961 to 0.031961
Heightened Def Con from 0.0320139 to 0.0320139
Heightened Def Con from 0.0320139 to 0.0320139
Heightened Def Con from 0.0320289 to 0.0320289
Heightened Def Con from 0.0320668 to 0.0320668
Heightened Def Con from 0.0320668 to 0.0320669
Heightened Def Con from 0.0320818 to 0.0320818
Heightened Def Con from 0.0321197 to 0.0321197
Heightened Def Con from 0.0321197 to 0.0321197
Heightened Def Con from 0.0321347 to 0.0321347
Heightened Def Con from 0.0321726 to 0.0321726
Heightened Def Con from 0.0321726 to 0.0321727
Heightened Def Con from 0.0322256 to 0.0322256
Heightened Def Con from 0.0322256 to 0.0322256
Heightened Def Con from 0.0322785 to 0.0322785
Heightened Def Con from 0.0322785 to 0.0322785
Heightened Def Con from 0.0323314 to 0.0323314
Heightened Def Con from 0.0323314 to 0.0323314
Heightened Def Con from 0.0323843 to 0.0323843
Heightened Def Con from 0.0323843 to 0.0323843
Heightened Def Con from 0.0323992 to 0.0323993
Heightened Def Con from 0.0324372 to 0.0324372
Heightened Def Con from 0.0324521 to 0.0324521
Heightened Def Con from 0.0324901 to 0.0324901
Heightened Def Con from 0.032543 to 0.032543
Heightened Def Con from 0.032543 to 0.032543
Heightened Def Con from 0.0325579 to 0.0325579
Heightened Def Con from 0.0325958 +to 0.0325958
Heightened Def Con from 0.0326108 to 0.0326108
Heightened Def Con from 0.0326487 to 0.0326487
Heightened Def Con from 0.0326487 to 0.0326487
Heightened Def Con from 0.0327016 to 0.0327016
Heightened Def Con from 0.0327016 to 0.0327016
Heightened Def Con from 0.0327166 to 0.0327166
Heightened Def Con from 0.0327545 to 0.0327545
Heightened Def Con from 0.0327695 to 0.0327695
Heightened Def Con from 0.0328074 to 0.0328074
Heightened Def Con from 0.0328074 to 0.0328074
Heightened Def Con from 0.0328602 to 0.0328602
Heightened Def Con from 0.0328602 to 0.0328602
Heightened Def Con from 0.0329131 to 0.0329131
Heightened Def Con from 0.0329659 to 0.0329659
Heightened Def Con from 0.032966 to 0.032966
Heightened Def Con from 0.0330188 to 0.0330188
Heightened Def Con from 0.0330717 to 0.0330717
Heightened Def Con from 0.0330866 to 0.0330867
Heightened Def Con from 0.0331245 to 0.0331245
Heightened Def Con from 0.0331245 to 0.0331246
Heightened Def Con from 0.0331774 to 0.0331774
Heightened Def Con from 0.0331774 to 0.0331774
Heightened Def Con from 0.0331924 to 0.0331924
Heightened Def Con from 0.0332302 to 0.0332302
Heightened Def Con from 0.0332302 to 0.0332303
Heightened Def Con from 0.0332452 to 0.0332452
Heightened Def Con from 0.0332831 to 0.0332831
Heightened Def Con from 0.0333359 to 0.0333359
Heightened Def Con from 0.0333359 to 0.0333359
Heightened Def Con from 0.0333359 to 0.033336
Heightened Def Con from 0.0333888 to 0.0333888
Heightened Def Con from 0.0333888 to 0.0333888
Heightened Def Con from 0.0334416 to 0.0334416
Heightened Def Con from 0.0334416 to 0.0334416
Heightened Def Con from 0.0334945 to 0.0334945
Heightened Def Con from 0.0334945 to 0.0334945
Heightened Def Con from 0.0334945 to 0.0334945
Heightened Def Con from 0.0335094 to 0.0335094
Heightened Def Con from 0.0335473 to 0.0335473
Heightened Def Con from 0.0335623 to 0.0335623
Heightened Def Con from 0.0336001 to 0.0336002
Heightened Def Con from 0.0336002 to 0.0336002
Heightened Def Con from 0.033653 to 0.033653
Heightened Def Con from 0.033653 to 0.033653
Heightened Def Con from 0.033653 to 0.033653
Heightened Def Con from 0.0336679 to 0.033668
Heightened Def Con from 0.0337058 to 0.0337058
Heightened Def Con from 0.0337058 to 0.0337058
Heightened Def Con from 0.0337208 to 0.0337208
Heightened Def Con from 0.0337586 to 0.0337586
Heightened Def Con from 0.0337736 to 0.0337736
Heightened Def Con from 0.0338114 to 0.0338114
Heightened Def Con from 0.0338114 to 0.0338115
Heightened Def Con from 0.0338264 to 0.0338264
Heightened Def Con from 0.0338643 to 0.0338643
Heightened Def Con from 0.0338643 to 0.0338643
Heightened Def Con from 0.0338792 to 0.0338792
Heightened Def Con from 0.0339171 to 0.0339171
Heightened Def Con from 0.0339321 to 0.0339321
Heightened Def Con from 0.0339699 to 0.0339699
Heightened Def Con from 0.0339699 to 0.0339699
Heightened Def Con from 0.0339849 to 0.0339849
Heightened Def Con from 0.034022 to 0.0340221
Heightened Def Con from 0.034037 to 0.034037
Heightened Def Con from 0.0340741 to 0.0340741
Heightened Def Con from 0.0340741 to 0.0340741
Heightened Def Con from 0.0341269 to 0.0341269
Heightened Def Con from 0.0341269 to 0.0341269
Heightened Def Con from 0.0341419 to 0.0341419
Heightened Def Con from 0.0341797 to 0.0341797
Heightened Def Con from 0.0341797 to 0.0341797
Heightened Def Con from 0.0341947 to 0.0341947
Heightened Def Con from 0.0342318 to 0.0342318
Heightened Def Con from 0.0342839 to 0.0342839
Heightened Def Con from 0.0342988 to 0.0342989
Heightened Def Con from 0.034336 to 0.034336
Heightened Def Con from 0.034336 to 0.034336
Heightened Def Con from 0.034388 to 0.0343881
Heightened Def Con from 0.0343881 to 0.0343881
Heightened Def Con from 0.0344401 to 0.0344401
Heightened Def Con from 0.0344401 to 0.0344401
Heightened Def Con from 0.0344922 to 0.0344922
Heightened Def Con from 0.0345442 to 0.0345442
Heightened Def Con from 0.0345442 to 0.0345442
Heightened Def Con from 0.0345442 to 0.0345442
Heightened Def Con from 0.0345592 to 0.0345592
Heightened Def Con from 0.0345963 to 0.0345963
Heightened Def Con from 0.0346112 to 0.0346112
Heightened Def Con from 0.0346483 to 0.0346483
Heightened Def Con from 0.0346483 to 0.0346483
Heightened Def Con from 0.0346633 to 0.0346633
Heightened Def Con from 0.0347004 to 0.0347004
Heightened Def Con from 0.0347004 to 0.0347004
Heightened Def Con from 0.0347524 to 0.0347524
Heightened Def Con from 0.0348045 to 0.0348045
Heightened Def Con from 0.0348045 to 0.0348045
Heightened Def Con from 0.0348045 to 0.0348045
Heightened Def Con from 0.0348194 to 0.0348194
Heightened Def Con from 0.0348565 to 0.0348565
Heightened Def Con from 0.0348715 to 0.0348715
Heightened Def Con from 0.0349086 to 0.0349086
Heightened Def Con from 0.0349235 to 0.0349235
Heightened Def Con from 0.0349606 to 0.0349606
Heightened Def Con from 0.0349756 to 0.0349756
Heightened Def Con from 0.0350127 to 0.0350127
Heightened Def Con from 0.0350127 to 0.0350127
Heightened Def Con from 0.0350276 to 0.0350276
Heightened Def Con from 0.0350647 to 0.0350647
Heightened Def Con from 0.0350797 to 0.0350797
Heightened Def Con from 0.0351168 to 0.0351168
Heightened Def Con from 0.0351168 to 0.0351168
Heightened Def Con from 0.0351317 to 0.0351317
Heightened Def Con from 0.0351688 to 0.0351688
Heightened Def Con from 0.0352209 to 0.0352209
Heightened Def Con from 0.0352209 to 0.0352209
Heightened Def Con from 0.0352729 to 0.0352729
Heightened Def Con from 0.0352729 to 0.0352729
Heightened Def Con from 0.0352878 to 0.0352879
Heightened Def Con from 0.0353249 to 0.0353249
Heightened Def Con from 0.035377 to 0.035377
Heightened Def Con from 0.035377 to 0.035377
Heightened Def Con from 0.035429 to 0.035429
Heightened Def Con from 0.035429 to 0.035429
Heightened Def Con from 0.0354811 to 0.0354811
Heightened Def Con from 0.0354811 to 0.0354811
Heightened Def Con from 0.0355332 to 0.0355332
Heightened Def Con from 0.0355481 to 0.0355481
Heightened Def Con from 0.0355852 to 0.0355852
Heightened Def Con from 0.0355852 to 0.0355852
Heightened Def Con from 0.0356001 to 0.0356001
Heightened Def Con from 0.0356372 to 0.0356373
Heightened Def Con from 0.0356373 to 0.0356373
Heightened Def Con from 0.0356522 to 0.0356522
Heightened Def Con from 0.0356893 to 0.0356893
Heightened Def Con from 0.0356893 to 0.0356893
Heightened Def Con from 0.0357042 to 0.0357042
Heightened Def Con from 0.0357413 to 0.0357413
Heightened Def Con from 0.0357413 to 0.0357413
Heightened Def Con from 0.0357563 to 0.0357563
Heightened Def Con from 0.0357934 to 0.0357934
Heightened Def Con from 0.0358083 to 0.0358083
Heightened Def Con from 0.0358454 to 0.0358455
Heightened Def Con from 0.0358975 to 0.0358975
Heightened Def Con from 0.0359124 to 0.0359124
Heightened Def Con from 0.0359495 to 0.0359495
Heightened Def Con from 0.0359495 to 0.0359496
Heightened Def Con from 0.0360016 to 0.0360017
Heightened Def Con from 0.0360166 to 0.0360166
Heightened Def Con from 0.0360537 to 0.0360537
Heightened Def Con from 0.0360686 to 0.0360686
Heightened Def Con from 0.0361057 to 0.0361058
Heightened Def Con from 0.0361207 to 0.0361207
Heightened Def Con from 0.0361578 to 0.0361578
Heightened Def Con from 0.0361578 to 0.0361578
Heightened Def Con from 0.0361728 to 0.0361728
Heightened Def Con from 0.0362099 to 0.0362099
Heightened Def Con from 0.0362099 to 0.0362099
Heightened Def Con from 0.036262 to 0.036262
Heightened Def Con from 0.0362769 to 0.0362769
Heightened Def Con from 0.036314 to 0.036314
Heightened Def Con from 0.0363661 to 0.0363661
Heightened Def Con from 0.0363811 to 0.0363811
Heightened Def Con from 0.0364182 to 0.0364182
Heightened Def Con from 0.0364182 to 0.0364182
Heightened Def Con from 0.0364331 to 0.0364332
Heightened Def Con from 0.0364703 to 0.0364703
Heightened Def Con from 0.0364703 to 0.0364703
Heightened Def Con from 0.0364852 to 0.0364852
Heightened Def Con from 0.0365223 to 0.0365223
Heightened Def Con from 0.0365744 to 0.0365744
Heightened Def Con from 0.0365893 to 0.0365893
Heightened Def Con from 0.0366265 to 0.0366265
Heightened Def Con from 0.0366414 to 0.0366414
Heightened Def Con from 0.0366785 to 0.0366785
Heightened Def Con from 0.0366785 to 0.0366785
Heightened Def Con from 0.0367306 to 0.0367306
Heightened Def Con from 0.0367306 to 0.0367306
Heightened Def Con from 0.0367456 to 0.0367456
Heightened Def Con from 0.0367834 to 0.0367834
Heightened Def Con from 0.0367834 to 0.0367834
Heightened Def Con from 0.0367834 to 0.0367834
Heightened Def Con from 0.0368355 to 0.0368355
Heightened Def Con from 0.0368505 to 0.0368505
Heightened Def Con from 0.0368883 to 0.0368883
Heightened Def Con from 0.0369033 to 0.0369033
Heightened Def Con from 0.0369405 to 0.0369405
Heightened Def Con from 0.0369405 to 0.0369405
Heightened Def Con from 0.0369932 to 0.0369932
Heightened Def Con from 0.0369932 to 0.0369933
Heightened Def Con from 0.0370461 to 0.0370461
Heightened Def Con from 0.0370461 to 0.0370461
Heightened Def Con from 0.037061 to 0.037061
Heightened Def Con from 0.0370989 to 0.0370989
Heightened Def Con from 0.037151 to 0.037151
Heightened Def Con from 0.037151 to 0.037151
Heightened Def Con from 0.037151 to 0.037151
Heightened Def Con from 0.037166 to 0.037166
Heightened Def Con from 0.0372031 to 0.0372031
Heightened Def Con from 0.0372181 to 0.0372181
Heightened Def Con from 0.0372552 to 0.0372553
Heightened Def Con from 0.0372702 to 0.0372702
Heightened Def Con from 0.0373074 to 0.0373074
Heightened Def Con from 0.0373595 to 0.0373595
Heightened Def Con from 0.0373595 to 0.0373595
Heightened Def Con from 0.0374116 to 0.0374116
Heightened Def Con from 0.0374265 to 0.0374266
Heightened Def Con from 0.0374637 to 0.0374637
Heightened Def Con from 0.0374637 to 0.0374637
Heightened Def Con from 0.0374786 to 0.0374787
Heightened Def Con from 0.0375158 to 0.0375158
Heightened Def Con from 0.0375158 to 0.0375158
Heightened Def Con from 0.0375679 to 0.0375679
Heightened Def Con from 0.0375679 to 0.037568
Heightened Def Con from 0.0376201 to 0.0376201
Heightened Def Con from 0.037635 to 0.037635
Heightened Def Con from 0.0376729 to 0.0376729
Heightened Def Con from 0.0376729 to 0.0376729
Heightened Def Con from 0.0376879 to 0.0376879
Heightened Def Con from 0.037725 to 0.037725
Heightened Def Con from 0.03774 to 0.03774
Heightened Def Con from 0.0377778 to 0.0377778
Heightened Def Con from 0.0377778 to 0.0377779
Heightened Def Con from 0.0377928 to 0.0377928
Heightened Def Con from 0.0378307 to 0.0378307
Heightened Def Con from 0.0378457 to 0.0378457
Heightened Def Con from 0.0378836 to 0.0378836
Heightened Def Con from 0.0378836 to 0.0378836
Heightened Def Con from 0.0379364 to 0.0379364
Heightened Def Con from 0.0379514 to 0.0379514
Heightened Def Con from 0.0379886 to 0.0379886
Heightened Def Con from 0.0379886 to 0.0379886
Heightened Def Con from 0.0380035 to 0.0380035
Heightened Def Con from 0.0380414 to 0.0380414
Heightened Def Con from 0.0380414 to 0.0380414
Heightened Def Con from 0.0380936 to 0.0380936
Heightened Def Con from 0.0380936 to 0.0380936
Heightened Def Con from 0.0381085 to 0.0381085
Heightened Def Con from 0.0381464 to 0.0381464
Heightened Def Con from 0.0381993 to 0.0381993
Heightened Def Con from 0.0381993 to 0.0381993
Heightened Def Con from 0.0382522 to 0.0382522
Heightened Def Con from 0.0382522 to 0.0382522
Heightened Def Con from 0.0382671 to 0.0382671
Heightened Def Con from 0.038305 to 0.038305
Heightened Def Con from 0.038305 to 0.038305
Heightened Def Con from 0.0383579 to 0.0383579
Heightened Def Con from 0.0384108 to 0.0384108
Heightened Def Con from 0.0384636 to 0.0384636
Heightened Def Con from 0.0384636 to 0.0384637
Heightened Def Con from 0.0384786 to 0.0384786
Heightened Def Con from 0.0385165 to 0.0385165
Heightened Def Con from 0.0385165 to 0.0385165
Heightened Def Con from 0.0385315 to 0.0385315
Heightened Def Con from 0.0385694 to 0.0385694
Heightened Def Con from 0.0385844 to 0.0385844
Heightened Def Con from 0.0386223 to 0.0386223
Heightened Def Con from 0.0386373 to 0.0386373
Heightened Def Con from 0.0386752 to 0.0386752
Heightened Def Con from 0.0386752 to 0.0386752
Heightened Def Con from 0.0386902 to 0.0386902
Heightened Def Con from 0.0387281 to 0.0387281
Heightened Def Con from 0.0387281 to 0.0387281
Heightened Def Con from 0.0387431 to 0.0387431
Heightened Def Con from 0.038781 to 0.038781
Heightened Def Con from 0.038781 to 0.038781
Heightened Def Con from 0.038796 to 0.038796
Heightened Def Con from 0.0388339 to 0.0388339
Heightened Def Con from 0.0388339 to 0.0388339
Heightened Def Con from 0.0388489 to 0.0388489
Heightened Def Con from 0.0388868 to 0.0388868
Heightened Def Con from 0.0389397 to 0.0389397
Heightened Def Con from 0.0389397 to 0.0389397
Heightened Def Con from 0.0389926 to 0.0389926
Heightened Def Con from 0.0390076 to 0.0390076
Heightened Def Con from 0.0390455 to 0.0390455
Heightened Def Con from 0.0390984 to 0.0390984
Heightened Def Con from 0.0391134 to 0.0391134
Heightened Def Con from 0.0391513 to 0.0391513
Heightened Def Con from 0.0391513 to 0.0391514
Heightened Def Con from 0.0391663 to 0.0391663
Heightened Def Con from 0.0392043 to 0.0392043
Heightened Def Con from 0.0392043 to 0.0392043
Heightened Def Con from 0.0392572 to 0.0392572
Heightened Def Con from 0.0392722 to 0.0392722
Heightened Def Con from 0.0393101 to 0.0393101
Heightened Def Con from 0.0393101 to 0.0393101
Heightened Def Con from 0.0393251 to 0.0393251
Heightened Def Con from 0.0393631 to 0.0393631
Heightened Def Con from 0.0393631 to 0.0393631
Heightened Def Con from 0.039416 to 0.039416
Heightened Def Con from 0.039431 to 0.039431
Heightened Def Con from 0.0394689 to 0.0394689
Heightened Def Con from 0.0395219 to 0.0395219
Heightened Def Con from 0.0395748 to 0.0395748
Heightened Def Con from 0.0395748 to 0.0395748
Heightened Def Con from 0.0396278 to 0.0396278
Heightened Def Con from 0.0396807 to 0.0396807
Heightened Def Con from 0.0397336 to 0.0397336
Heightened Def Con from 0.0397336 to 0.0397337
Heightened Def Con from 0.0397486 to 0.0397486
Heightened Def Con from 0.0397866 to 0.0397866
Heightened Def Con from 0.0397866 to 0.0397866
Heightened Def Con from 0.0398396 to 0.0398396
Heightened Def Con from 0.0398396 to 0.0398396
Heightened Def Con from 0.0398545 to 0.0398545
Heightened Def Con from 0.0398925 to 0.0398925
Heightened Def Con from 0.0399075 to 0.0399075
Heightened Def Con from 0.0401037 to 0.0401037
Heightened Def Con from 0.0401186 to 0.0401186
Heightened Def Con from 0.0401567 to 0.0401567
Heightened Def Con from 0.0402097 to 0.0402097
Heightened Def Con from 0.0402627 to 0.0402627
Heightened Def Con from 0.0402627 to 0.0402627
Heightened Def Con from 0.0403157 to 0.0403157
Heightened Def Con from 0.0403687 to 0.0403687
Heightened Def Con from 0.0403687 to 0.0403687
Heightened Def Con from 0.0403836 to 0.0403837
Heightened Def Con from 0.0404217 to 0.0404217
Heightened Def Con from 0.0404747 to 0.0404747
Heightened Def Con from 0.0404897 to 0.0404897
Heightened Def Con from 0.0405277 to 0.0405277
Heightened Def Con from 0.0405277 to 0.0405277
Heightened Def Con from 0.0405807 to 0.0405807
Heightened Def Con from 0.0405807 to 0.0405807
Heightened Def Con from 0.0406337 to 0.0406337
Heightened Def Con from 0.0406867 to 0.0406867
Heightened Def Con from 0.0406867 to 0.0406867
Heightened Def Con from 0.0407017 to 0.0407017
Heightened Def Con from 0.0407397 to 0.0407397
Heightened Def Con from 0.0407547 to 0.0407547
Heightened Def Con from 0.0407928 to 0.0407928
Heightened Def Con from 0.0407928 to 0.0407928
Heightened Def Con from 0.0408457 to 0.0408457
Heightened Def Con from 0.0408607 to 0.0408607
Heightened Def Con from 0.0408987 to 0.0408987
Heightened Def Con from 0.0408987 to 0.0408987
Heightened Def Con from 0.0409137 to 0.0409137
Heightened Def Con from 0.0409517 to 0.0409517
Heightened Def Con from 0.0409667 to 0.0409667
Heightened Def Con from 0.0410047 to 0.0410047
Heightened Def Con from 0.0410577 to 0.0410577
Heightened Def Con from 0.0410577 to 0.0410577
Heightened Def Con from 0.0411107 to 0.0411107
Heightened Def Con from 0.0411256 to 0.0411257
Heightened Def Con from 0.0411637 to 0.0411637
Heightened Def Con from 0.0412167 to 0.0412167
Heightened Def Con from 0.0412316 to 0.0412316
Heightened Def Con from 0.0412696 to 0.0412696
Heightened Def Con from 0.0412696 to 0.0412696
Heightened Def Con from 0.0412846 to 0.0412846
Heightened Def Con from 0.0413226 to 0.0413226
Heightened Def Con from 0.0413756 to 0.0413756
Heightened Def Con from 0.0413756 to 0.0413756
Heightened Def Con from 0.0414286 to 0.0414286
Heightened Def Con from 0.0414816 to 0.0414816
Heightened Def Con from 0.0415345 to 0.0415345
Heightened Def Con from 0.0415345 to 0.0415345
Heightened Def Con from 0.0415875 to 0.0415875
Heightened Def Con from 0.0415875 to 0.0415875
Heightened Def Con from 0.0415875 to 0.0415875
Heightened Def Con from 0.0416405 to 0.0416405
Heightened Def Con from 0.0416934 to 0.0416934
Heightened Def Con from 0.0416934 to 0.0416934
Heightened Def Con from 0.0417084 to 0.0417084
Heightened Def Con from 0.0417464 to 0.0417464
Heightened Def Con from 0.0417464 to 0.0417464
Heightened Def Con from 0.0417613 to 0.0417613
Heightened Def Con from 0.0417993 to 0.0417993
Heightened Def Con from 0.0417993 to 0.0417993
Heightened Def Con from 0.0418522 to 0.0418522
Heightened Def Con from 0.0418522 to 0.0418523
Heightened Def Con from 0.0418672 to 0.0418672
Heightened Def Con from 0.0419052 to 0.0419052
Heightened Def Con from 0.0419201 to 0.0419202
Heightened Def Con from 0.0419581 to 0.0419581
Heightened Def Con from 0.0419731 to 0.0419731
Heightened Def Con from 0.0420111 to 0.0420111
Heightened Def Con from 0.042064 to 0.042064
Heightened Def Con from 0.042064 to 0.042064
Heightened Def Con from 0.0420789 to 0.0420789
Heightened Def Con from 0.0421169 to 0.0421169
Heightened Def Con from 0.0421319 to 0.0421319
Heightened Def Con from 0.0421698 to 0.0421698
Heightened Def Con from 0.0421698 to 0.0421698
Heightened Def Con from 0.0421848 to 0.0421848
Heightened Def Con from 0.0422228 to 0.0422228
Heightened Def Con from 0.0422228 to 0.0422228
Heightened Def Con from 0.0422377 to 0.0422377
Heightened Def Con from 0.0422757 to 0.0422757
Heightened Def Con from 0.0422757 to 0.0422757
Heightened Def Con from 0.0422757 to 0.0422757
Heightened Def Con from 0.0422906 to 0.0422907
Heightened Def Con from 0.0423286 to 0.0423286
Heightened Def Con from 0.0423815 to 0.0423815
Heightened Def Con from 0.0423815 to 0.0423815
Heightened Def Con from 0.0423815 to 0.0423815
Heightened Def Con from 0.0423965 to 0.0423965
Heightened Def Con from 0.0424344 to 0.0424344
Heightened Def Con from 0.0424344 to 0.0424344
Heightened Def Con from 0.0424494 to 0.0424494
Heightened Def Con from 0.0424873 to 0.0424873
Heightened Def Con from 0.0424873 to 0.0424873
Heightened Def Con from 0.0425402 to 0.0425402
Heightened Def Con from 0.0425402 to 0.0425402
Heightened Def Con from 0.0425552 to 0.0425552
Heightened Def Con from 0.0425931 to 0.0425931
Heightened Def Con from 0.0425931 to 0.0425931
Heightened Def Con from 0.0425931 to 0.0425931
Heightened Def Con from 0.0426081 to 0.0426081
Heightened Def Con from 0.042646 to 0.042646
Heightened Def Con from 0.042661 to 0.042661
Heightened Def Con from 0.0426989 to 0.0426989
Heightened Def Con from 0.0426989 to 0.0426989
Heightened Def Con from 0.0427139 to 0.0427139
Heightened Def Con from 0.0427518 to 0.0427518
Heightened Def Con from 0.0427668 to 0.0427668
Heightened Def Con from 0.0428047 to 0.0428047
Heightened Def Con from 0.0428047 to 0.0428047
Heightened Def Con from 0.0428196 to 0.0428197
Heightened Def Con from 0.0428576 to 0.0428576
Heightened Def Con from 0.0429104 to 0.0429104
Heightened Def Con from 0.0429104 to 0.0429104
Heightened Def Con from 0.0429633 to 0.0429633
Heightened Def Con from 0.0429633 to 0.0429633
Heightened Def Con from 0.0429783 to 0.0429783
Heightened Def Con from 0.0430162 to 0.0430162
Heightened Def Con from 0.0430311 to 0.0430311
Heightened Def Con from 0.043069 to 0.043069
Heightened Def Con from 0.043069 to 0.043069
Heightened Def Con from 0.043069 to 0.043069
Heightened Def Con from 0.043084 to 0.043084
Heightened Def Con from 0.0431219 to 0.0431219
Heightened Def Con from 0.0431219 to 0.0431219
Heightened Def Con from 0.0431368 to 0.0431368
Heightened Def Con from 0.0431747 to 0.0431747
Heightened Def Con from 0.0431747 to 0.0431747
Heightened Def Con from 0.0432276 to 0.0432276
Heightened Def Con from 0.0432276 to 0.0432276
Heightened Def Con from 0.0432425 to 0.0432425
Heightened Def Con from 0.0432804 to 0.0432804
Heightened Def Con from 0.0432804 to 0.0432804
Heightened Def Con from 0.0433333 to 0.0433333
Heightened Def Con from 0.0433861 to 0.0433861
Heightened Def Con from 0.0433861 to 0.0433861
Heightened Def Con from 0.0434011 to 0.0434011
Heightened Def Con from 0.043439 to 0.043439
Heightened Def Con from 0.043439 to 0.043439
Heightened Def Con from 0.0434539 to 0.043454
Heightened Def Con from 0.0434918 to 0.0434918
Heightened Def Con from 0.0435447 to 0.0435447
Heightened Def Con from 0.0435447 to 0.0435447
Heightened Def Con from 0.0435596 to 0.0435597
Heightened Def Con from 0.0435975 to 0.0435975
Heightened Def Con from 0.0435975 to 0.0435975
Heightened Def Con from 0.0436125 to 0.0436125
Heightened Def Con from 0.0436503 to 0.0436504
Heightened Def Con from 0.0437032 to 0.0437032
Heightened Def Con from 0.0437032 to 0.0437032
Heightened Def Con from 0.043756 to 0.043756
Heightened Def Con from 0.043771 to 0.043771
Heightened Def Con from 0.0438088 to 0.0438088
Heightened Def Con from 0.0438088 to 0.0438088
Heightened Def Con from 0.0438238 to 0.0438238
Heightened Def Con from 0.0438617 to 0.0438617
Heightened Def Con from 0.0439145 to 0.0439145
Heightened Def Con from 0.0439673 to 0.0439673
Heightened Def Con from 0.0440201 to 0.0440201
Heightened Def Con from 0.0440201 to 0.0440202
Heightened Def Con from 0.044073 to 0.044073
Heightened Def Con from 0.044073 to 0.044073
Heightened Def Con from 0.0440879 to 0.0440879
Heightened Def Con from 0.0441258 to 0.0441258
Heightened Def Con from 0.0441258 to 0.0441258
Heightened Def Con from 0.0441407 to 0.0441408
Heightened Def Con from 0.0441786 to 0.0441786
Heightened Def Con from 0.0441786 +to 0.0441786
Heightened Def Con from 0.0442314 to 0.0442314
Heightened Def Con from 0.0442314 to 0.0442314
Heightened Def Con from 0.0442464 to 0.0442464
Heightened Def Con from 0.0442835 to 0.0442835
Heightened Def Con from 0.0443356 to 0.0443356
Heightened Def Con from 0.0443505 to 0.0443505
Heightened Def Con from 0.0443876 to 0.0443877
Heightened Def Con from 0.0444397 to 0.0444397
Heightened Def Con from 0.0444397 to 0.0444397
Heightened Def Con from 0.0444547 to 0.0444547
Heightened Def Con from 0.0444918 to 0.0444918
Heightened Def Con from 0.0445439 to 0.0445439
Heightened Def Con from 0.0445439 to 0.0445439
Heightened Def Con from 0.0445588 to 0.0445588
Heightened Def Con from 0.044596 to 0.044596
Heightened Def Con from 0.044596 to 0.044596
Heightened Def Con from 0.0446481 to 0.0446481
Heightened Def Con from 0.0446481 to 0.0446481
Heightened Def Con from 0.0447001 to 0.0447001
Heightened Def Con from 0.0447001 to 0.0447001
Heightened Def Con from 0.0447522 to 0.0447522
Heightened Def Con from 0.0447671 to 0.0447671
Heightened Def Con from 0.0448043 to 0.0448043
Heightened Def Con from 0.0448192 to 0.0448192
Heightened Def Con from 0.0448563 to 0.0448563
Heightened Def Con from 0.0448563 to 0.0448563
Heightened Def Con from 0.0448712 to 0.0448713
Heightened Def Con from 0.0449084 to 0.0449084
Heightened Def Con from 0.0449233 to 0.0449233
Heightened Def Con from 0.0449604 to 0.0449604
Heightened Def Con from 0.0449754 to 0.0449754
Heightened Def Con from 0.0450125 to 0.0450125
Heightened Def Con from 0.0450125 to 0.0450125
Heightened Def Con from 0.0450274 to 0.0450274
Heightened Def Con from 0.0450645 to 0.0450645
Heightened Def Con from 0.0450645 to 0.0450646
Heightened Def Con from 0.0450795 to 0.0450795
Heightened Def Con from 0.0451166 to 0.0451166
Heightened Def Con from 0.0451166 to 0.0451166
Heightened Def Con from 0.0451315 to 0.0451315
Heightened Def Con from 0.0451686 to 0.0451686
Heightened Def Con from 0.0451686 to 0.0451686
Heightened Def Con from 0.0451836 to 0.0451836
Heightened Def Con from 0.0452207 to 0.0452207
Heightened Def Con from 0.0452207 to 0.0452207
Heightened Def Con from 0.0452356 to 0.0452356
Heightened Def Con from 0.0452727 to 0.0452727
Heightened Def Con from 0.0452727 to 0.0452727
Heightened Def Con from 0.0452877 to 0.0452877
Heightened Def Con from 0.0453248 to 0.0453248
Heightened Def Con from 0.0453397 to 0.0453397
Heightened Def Con from 0.0453769 +to 0.0453769
Heightened Def Con from 0.0453918 to 0.0453918
Heightened Def Con from 0.0454289 to 0.0454289
Heightened Def Con from 0.0454289 to 0.0454289
Heightened Def Con from 0.0454439 to 0.0454439
Heightened Def Con from 0.045481 to 0.045481
Heightened Def Con from 0.0454959 to 0.0454959
Heightened Def Con from 0.045533 to 0.0455331
Heightened Def Con from 0.0455851 to 0.0455851
Heightened Def Con from 0.0455851 to 0.0455851
Heightened Def Con from 0.0456 to 0.0456
Heightened Def Con from 0.0456371 to 0.0456371
Heightened Def Con from 0.0456371 to 0.0456372
Heightened Def Con from 0.0456521 to 0.0456521
Heightened Def Con from 0.0456892 to 0.0456892
Heightened Def Con from 0.0457041 to 0.0457041
Heightened Def Con from 0.0457412 to 0.0457412
Heightened Def Con from 0.0457412 to 0.0457413
Heightened Def Con from 0.0457562 to 0.0457562
Heightened Def Con from 0.0457933 to 0.0457933
Heightened Def Con from 0.0458082 to 0.0458082
Heightened Def Con from 0.0458454 to 0.0458454
Heightened Def Con from 0.0458454 to 0.0458454
Heightened Def Con from 0.0458974 to 0.0458974
Heightened Def Con from 0.0459495 to 0.0459495
Heightened Def Con from 0.0459495 to 0.0459495
Heightened Def Con from 0.0459644 to 0.0459644
Heightened Def Con from 0.0460015 to 0.0460015
Heightened Def Con from 0.0460015 to 0.0460015
Heightened Def Con from 0.0460015 to 0.0460015
Heightened Def Con from 0.0460165 to 0.0460165
Heightened Def Con from 0.0460536 +to 0.0460536
Heightened Def Con from 0.0460685 to 0.0460685
Heightened Def Con from 0.0461057 to 0.0461057
Heightened Def Con from 0.0461577 to 0.0461578
Heightened Def Con from 0.0461727 to 0.0461727
Heightened Def Con from 0.0462098 to 0.0462098
Heightened Def Con from 0.0462619 to 0.0462619
[...]
Heightened Def Con from 0.133651 to 0.133651
Heightened Def Con from 0.133704 to 0.133704
Heightened Def Con from 0.133704 to 0.133704
Heightened Def Con from 0.133719 to 0.133719
Heightened Def Con from 0.133756 to 0.133756
Heightened Def Con from 0.133756 to 0.133756
Heightened Def Con from 0.133756 to 0.133757
Heightened Def Con from 0.133809 to 0.133809
Heightened Def Con from 0.133862 to 0.133862
Heightened Def Con from 0.133862 to 0.133862
Heightened Def Con from 0.133877 to 0.133877
Heightened Def Con from 0.133915 to 0.133915
Heightened Def Con from 0.133915 to 0.133915
Heightened Def Con from 0.13393 to 0.13393
Heightened Def Con from 0.133968 to 0.133968
Heightened Def Con from 0.133968 to 0.133968
Heightened Def Con from 0.133983 to 0.133983
Heightened Def Con from 0.134021 to 0.134021
Heightened Def Con from 0.134021 to 0.134021
Heightened Def Con from 0.134073 to 0.134073
Heightened Def Con from 0.134073 to 0.134073
Heightened Def Con from 0.134126 to 0.134126
Heightened Def Con from 0.134141 to 0.134141
Heightened Def Con from 0.134179 to 0.134179
Heightened Def Con from 0.134194 to 0.134194
Heightened Def Con from 0.134232 to 0.134232
Heightened Def Con from 0.134284 to 0.134284
Heightened Def Con from 0.134299 to 0.134299
Heightened Def Con from 0.134336 to 0.134336
Heightened Def Con from 0.134388 to 0.134388
Heightened Def Con from 0.13444 to 0.13444
Heightened Def Con from 0.134455 to 0.134455
Heightened Def Con from 0.134492 to 0.134492
Heightened Def Con from 0.134507 to 0.134507
Heightened Def Con from 0.134544 +to 0.134544
Heightened Def Con from 0.134559 to 0.134559
Heightened Def Con from 0.134597 to 0.134597
Heightened Def Con from 0.134597 to 0.134597
Heightened Def Con from 0.134611 to 0.134611
Heightened Def Con from 0.134649 to 0.134649
Heightened Def Con from 0.134649 to 0.134649
Heightened Def Con from 0.134664 to 0.134664
Heightened Def Con from 0.134701 to 0.134701
Heightened Def Con from 0.134701 to 0.134701
Heightened Def Con from 0.134716 to 0.134716
Heightened Def Con from 0.134753 to 0.134753
Heightened Def Con from 0.134768 to 0.134768
Heightened Def Con from 0.134805 to 0.134805
Heightened Def Con from 0.13482 to 0.13482
Heightened Def Con from 0.134857 to 0.134857
Heightened Def Con from 0.134872 to 0.134872
Heightened Def Con from 0.134909 to 0.134909
Heightened Def Con from 0.134909 to 0.134909
Heightened Def Con from 0.134961 to 0.134961
Heightened Def Con from 0.134961 to 0.134961
Heightened Def Con from 0.135013 to 0.135013
Heightened Def Con from 0.135013 to 0.135013
Heightened Def Con from 0.135065 to 0.135065
Heightened Def Con from 0.135117 to 0.135117
Heightened Def Con from 0.135117 to 0.135117
Heightened Def Con from 0.135169 to 0.135169
Heightened Def Con from 0.135184 to 0.135184
Heightened Def Con from 0.135221 to 0.135221
Heightened Def Con from 0.135221 to 0.135221
Heightened Def Con from 0.135236 to 0.135236
Heightened Def Con from 0.135273 +to 0.135273
Heightened Def Con from 0.135325 to 0.135325
Heightened Def Con from 0.135325 to 0.135325
Heightened Def Con from 0.135325 to 0.135325
Heightened Def Con from 0.13534 to 0.13534
Heightened Def Con from 0.135377 to 0.135377
Heightened Def Con from 0.135377 to 0.135377
Heightened Def Con from 0.135392 to 0.135392
Heightened Def Con from 0.135429 to 0.135429
Heightened Def Con from 0.135429 to 0.135429
Heightened Def Con from 0.135481 to 0.135481
Heightened Def Con from 0.135534 to 0.135534
Heightened Def Con from 0.135534 to 0.135534
Heightened Def Con from 0.135548 to 0.135548
Heightened Def Con from 0.135586 to 0.135586
Heightened Def Con from 0.135586 to 0.135586
Heightened Def Con from 0.135601 to 0.135601
Heightened Def Con from 0.135638 to 0.135638
Heightened Def Con from 0.135653 to 0.135653
Heightened Def Con from 0.13569 to 0.13569
Heightened Def Con from 0.135742 to 0.135742
Heightened Def Con from 0.135794 to 0.135794
Heightened Def Con from 0.135794 to 0.135794
Heightened Def Con from 0.135846 to 0.135846
Heightened Def Con from 0.135861 to 0.135861
Heightened Def Con from 0.135898 to 0.135898
Heightened Def Con from 0.135898 to 0.135898
Heightened Def Con from 0.135913 to 0.135913
Heightened Def Con from 0.13595 to 0.13595
Heightened Def Con from 0.13595 to 0.13595
Heightened Def Con from 0.136002 to 0.136002
Heightened Def Con from 0.136002 to 0.136002
Heightened Def Con from 0.136017 to 0.136017
Heightened Def Con from 0.136054 to 0.136054
Heightened Def Con from 0.136054 to 0.136054
Heightened Def Con from 0.136069 to 0.136069
Heightened Def Con from 0.136106 to 0.136106
Heightened Def Con from 0.136121 to 0.136121
Heightened Def Con from 0.136158 to 0.136158
Heightened Def Con from 0.13621 to 0.13621
Heightened Def Con from 0.136225 to 0.136225
Heightened Def Con from 0.136262 to 0.136262
Heightened Def Con from 0.136262 to 0.136262
Heightened Def Con from 0.136314 to 0.136314
Heightened Def Con from 0.136329 to 0.136329
Heightened Def Con from 0.136367 to 0.136367
Heightened Def Con from 0.136381 to 0.136381
Heightened Def Con from 0.136419 to 0.136419
Heightened Def Con from 0.136434 to 0.136434
Heightened Def Con from 0.136471 to 0.136471
Heightened Def Con from 0.136523 to 0.136523
Heightened Def Con from 0.136523 to 0.136523
Heightened Def Con from 0.136523 to 0.136523
Heightened Def Con from 0.136538 to 0.136538
Heightened Def Con from 0.136575 to 0.136575
Heightened Def Con from 0.136627 to 0.136627
Heightened Def Con from 0.136642 to 0.136642
Heightened Def Con from 0.136679 to 0.136679
Heightened Def Con from 0.136679 to 0.136679
Heightened Def Con from 0.136731 to 0.136731
Heightened Def Con from 0.136731 to 0.136731
Heightened Def Con from 0.136746 to 0.136746
Heightened Def Con from 0.136783 to 0.136783
Heightened Def Con from 0.136783 to 0.136783
Heightened Def Con from 0.136836 to 0.136836
Heightened Def Con from 0.136889 to 0.136889
Heightened Def Con from 0.136889 to 0.136889
Heightened Def Con from 0.136904 to 0.136904
Heightened Def Con from 0.136941 to 0.136941
Heightened Def Con from 0.136956 to 0.136956
Heightened Def Con from 0.136994 to 0.136994
Heightened Def Con from 0.136994 to 0.136994
Heightened Def Con from 0.137009 to 0.137009
Heightened Def Con from 0.137047 to 0.137047
Heightened Def Con from 0.137047 to 0.137047
Heightened Def Con from 0.137062 to 0.137062
Heightened Def Con from 0.137099 to 0.137099
Heightened Def Con from 0.137099 to 0.137099
Heightened Def Con from 0.137152 to 0.137152
Heightened Def Con from 0.137166 to 0.137166
Heightened Def Con from 0.137204 to 0.137204
Heightened Def Con from 0.137219 to 0.137219
Heightened Def Con from 0.137256 to 0.137256
Heightened Def Con from 0.137256 to 0.137256
Heightened Def Con from 0.137309 to 0.137309
Heightened Def Con from 0.137323 to 0.137324
Heightened Def Con from 0.137361 to 0.137361
Heightened Def Con from 0.137361 to 0.137361
Heightened Def Con from 0.137376 to 0.137376
Heightened Def Con from 0.137413 to 0.137413
Heightened Def Con from 0.137428 to 0.137428
Heightened Def Con from 0.137465 to 0.137465
Heightened Def Con from 0.137465 to 0.137465
Heightened Def Con from 0.13748 to 0.13748
Heightened Def Con from 0.137517 to 0.137517
Heightened Def Con from 0.137517 to 0.137517
Heightened Def Con from 0.137569 to 0.137569
Heightened Def Con from 0.137569 to 0.137569
Heightened Def Con from 0.137584 to 0.137584
Heightened Def Con from 0.137622 to 0.137622
Heightened Def Con from 0.137637 to 0.137637
Heightened Def Con from 0.137675 to 0.137675
Heightened Def Con from 0.137727 to 0.137727
Heightened Def Con from 0.13778 to 0.13778
Heightened Def Con from 0.13778 to 0.13778
Heightened Def Con from 0.137832 to 0.137832
Heightened Def Con from 0.137885 to 0.137885
Heightened Def Con from 0.137885 to 0.137885
Heightened Def Con from 0.137885 to 0.137885
Heightened Def Con from 0.137938 to 0.137938
Heightened Def Con from 0.137938 to 0.137938
Heightened Def Con from 0.137953 to 0.137953
Heightened Def Con from 0.13799 +to 0.13799
Heightened Def Con from 0.138005 to 0.138005
Heightened Def Con from 0.138042 to 0.138042
Heightened Def Con from 0.138042 to 0.138042
Heightened Def Con from 0.138095 to 0.138095
Heightened Def Con from 0.138095 to 0.138095
Heightened Def Con from 0.13811 to 0.13811
Heightened Def Con from 0.138148 to 0.138148
Heightened Def Con from 0.138148 to 0.138148
Heightened Def Con from 0.138163 to 0.138163
Heightened Def Con from 0.138201 to 0.138201
Heightened Def Con from 0.138216 to 0.138216
Heightened Def Con from 0.138253 to 0.138253
Heightened Def Con from 0.138306 to 0.138306
Heightened Def Con from 0.138306 to 0.138306
Heightened Def Con from 0.138321 to 0.138321
Heightened Def Con from 0.138359 to 0.138359
Heightened Def Con from 0.138374 to 0.138374
Heightened Def Con from 0.138412 to 0.138412
Heightened Def Con from 0.138412 to 0.138412
Heightened Def Con from 0.138465 to 0.138465
Heightened Def Con from 0.138465 to 0.138465
Heightened Def Con from 0.138518 to 0.138518
Heightened Def Con from 0.138518 to 0.138518
Heightened Def Con from 0.138571 to 0.138571
Heightened Def Con from 0.138571 to 0.138571
Heightened Def Con from 0.138624 to 0.138624
Heightened Def Con from 0.138639 to 0.138639
Heightened Def Con from 0.138677 +to 0.138677
Heightened Def Con from 0.138691 to 0.138691
Heightened Def Con from 0.138729 to 0.138729
Heightened Def Con from 0.138729 to 0.138729
Heightened Def Con from 0.138744 to 0.138744
Heightened Def Con from 0.138782 to 0.138782
Heightened Def Con from 0.138782 to 0.138782
Heightened Def Con from 0.138782 to 0.138782
Heightened Def Con from 0.138835 to 0.138835
Heightened Def Con from 0.138835 to 0.138835
Heightened Def Con from 0.138835 to 0.138835
Heightened Def Con from 0.13885 to 0.13885
Heightened Def Con from 0.138888 to 0.138888
Heightened Def Con from 0.138888 to 0.138888
Heightened Def Con from 0.138941 to 0.138941
Heightened Def Con from 0.138941 to 0.138941
Heightened Def Con from 0.138994 to 0.138994
Heightened Def Con from 0.139009 to 0.139009
Heightened Def Con from 0.139047 to 0.139047
Heightened Def Con from 0.1391 to 0.1391
Heightened Def Con from 0.139115 to 0.139115
Heightened Def Con from 0.139153 to 0.139153
Heightened Def Con from 0.139153 to 0.139153
Heightened Def Con from 0.139168 to 0.139168
Heightened Def Con from 0.139206 to 0.139206
Heightened Def Con from 0.139221 to 0.139221
Heightened Def Con from 0.139259 to 0.139259
Heightened Def Con from 0.139311 to 0.139311
Heightened Def Con from 0.139326 to 0.139326
Heightened Def Con from 0.139364 to 0.139364
Heightened Def Con from 0.139364 to 0.139364
Heightened Def Con from 0.139417 to 0.139417
Heightened Def Con from 0.139432 to 0.139432
Heightened Def Con from 0.13947 to 0.13947
Heightened Def Con from 0.139523 to 0.139523
Heightened Def Con from 0.139523 to 0.139523
Heightened Def Con from 0.139538 to 0.139538
Heightened Def Con from 0.139576 to 0.139576
Heightened Def Con from 0.139576 to 0.139576
Heightened Def Con from 0.139629 to 0.139629
Heightened Def Con from 0.139629 to 0.139629
Heightened Def Con from 0.139644 to 0.139644
Heightened Def Con from 0.139682 to 0.139682
Heightened Def Con from 0.139697 to 0.139697
Heightened Def Con from 0.139735 to 0.139735
Heightened Def Con from 0.139735 to 0.139735
Heightened Def Con from 0.13975 to 0.13975
Heightened Def Con from 0.139788 to 0.139788
Heightened Def Con from 0.139788 to 0.139788
Heightened Def Con from 0.139803 to 0.139803
Heightened Def Con from 0.139841 to 0.139841
Heightened Def Con from 0.139841 to 0.139841
Heightened Def Con from 0.139894 to 0.139894
Heightened Def Con from 0.139894 to 0.139894
Heightened Def Con from 0.139909 to 0.139909
Heightened Def Con from 0.140105 to 0.140105
Heightened Def Con from 0.140158 to 0.140158
Heightened Def Con from 0.140211 to 0.140211
Heightened Def Con from 0.140211 to 0.140211
Heightened Def Con from 0.140264 +to 0.140264
Heightened Def Con from 0.140279 to 0.140279
Heightened Def Con from 0.140317 to 0.140317
Heightened Def Con from 0.140332 to 0.140332
Heightened Def Con from 0.14037 to 0.14037
Heightened Def Con from 0.140423 to 0.140423
Heightened Def Con from 0.140438 to 0.140438
Heightened Def Con from 0.140476 to 0.140476
Heightened Def Con from 0.140476 to 0.140476
Heightened Def Con from 0.140491 to 0.140491
Heightened Def Con from 0.140529 to 0.140529
Heightened Def Con from 0.140529 to 0.140529
Heightened Def Con from 0.140582 to 0.140582
Heightened Def Con from 0.140582 to 0.140582
Heightened Def Con from 0.140597 to 0.140597
Heightened Def Con from 0.140635 to 0.140635
Heightened Def Con from 0.140635 to 0.140635
Heightened Def Con from 0.14065 to 0.14065
Heightened Def Con from 0.140688 to 0.140688
Heightened Def Con from 0.140688 to 0.140688
Heightened Def Con from 0.140741 to 0.140741
Heightened Def Con from 0.140741 to 0.140741
Heightened Def Con from 0.140756 to 0.140756
Heightened Def Con from 0.140794 to 0.140794
Heightened Def Con from 0.140794 to 0.140794
Heightened Def Con from 0.140847 to 0.140847
Heightened Def Con from 0.140847 to 0.140847
Heightened Def Con from 0.140862 to 0.140862
Heightened Def Con from 0.1409 to 0.1409
Heightened Def Con from 0.1409 to 0.1409
Heightened Def Con from 0.140915 to 0.140915
Heightened Def Con from 0.140953 to 0.140953
Heightened Def Con from 0.140968 to 0.140968
Heightened Def Con from 0.141006 to 0.141006
Heightened Def Con from 0.141006 to 0.141006
Heightened Def Con from 0.141059 to 0.141059
Heightened Def Con from 0.141059 to 0.141059
Heightened Def Con from 0.141112 to 0.141112
Heightened Def Con from 0.141112 to 0.141112
Heightened Def Con from 0.141165 to 0.141165
Heightened Def Con from 0.14118 to 0.14118
Heightened Def Con from 0.141218 to 0.141218
Heightened Def Con from 0.141271 to 0.141271
Heightened Def Con from 0.141271 to 0.141271
Heightened Def Con from 0.141271 to 0.141271
Heightened Def Con from 0.141324 to 0.141324
Heightened Def Con from 0.141339 to 0.141339
Heightened Def Con from 0.141377 to 0.141377
Heightened Def Con from 0.14143 to 0.14143
Heightened Def Con from 0.14143 to 0.14143
Heightened Def Con from 0.141445 to 0.141445
Heightened Def Con from 0.141483 to 0.141483
Heightened Def Con from 0.141483 to 0.141483
Heightened Def Con from 0.141536 to 0.141536
Heightened Def Con from 0.141536 to 0.141536
Heightened Def Con from 0.141589 to 0.141589
Heightened Def Con from 0.141642 to 0.141642
Heightened Def Con from 0.141642 to 0.141642
Heightened Def Con from 0.141657 to 0.141657
Heightened Def Con from 0.141695 to 0.141695
Heightened Def Con from 0.14171 to 0.14171
Heightened Def Con from 0.141748 to 0.141748
Heightened Def Con from 0.141748 to 0.141748
Heightened Def Con from 0.141763 to 0.141763
Heightened Def Con from 0.1418 to 0.141801
Heightened Def Con from 0.141801 to 0.141801
Heightened Def Con from 0.141815 to 0.141815
Heightened Def Con from 0.141853 to 0.141853
Heightened Def Con from 0.141868 to 0.141868
Heightened Def Con from 0.141906 to 0.141906
Heightened Def Con from 0.141906 to 0.141906
Heightened Def Con from 0.141959 to 0.141959
Heightened Def Con from 0.141959 to 0.141959
Heightened Def Con from 0.141974 to 0.141974
Heightened Def Con from 0.142012 to 0.142012
Heightened Def Con from 0.142012 to 0.142012
Heightened Def Con from 0.142027 to 0.142027
Heightened Def Con from 0.142065 to 0.142065
Heightened Def Con from 0.14208 to 0.14208
Heightened Def Con from 0.142118 to 0.142118
Heightened Def Con from 0.142171 to 0.142171
Heightened Def Con from 0.142171 to 0.142171
Heightened Def Con from 0.142186 to 0.142186
Heightened Def Con from 0.142224 to 0.142224
Heightened Def Con from 0.142224 to 0.142224
Heightened Def Con from 0.142239 to 0.142239
Heightened Def Con from 0.142277 to 0.142277
Heightened Def Con from 0.142277 to 0.142277
Heightened Def Con from 0.14233 to 0.14233
Heightened Def Con from 0.14233 to 0.14233
Heightened Def Con from 0.142383 to 0.142383
Heightened Def Con from 0.142383 to 0.142383
Heightened Def Con from 0.142383 to 0.142383
Heightened Def Con from 0.142398 to 0.142398
Heightened Def Con from 0.142436 to 0.142436
Heightened Def Con from 0.142436 to 0.142436
Heightened Def Con from 0.142488 to 0.142488
Heightened Def Con from 0.142503 to 0.142503
Heightened Def Con from 0.142541 to 0.142541
Heightened Def Con from 0.142541 to 0.142541
Heightened Def Con from 0.142594 to 0.142594
Heightened Def Con from 0.142609 to 0.142609
Heightened Def Con from 0.142647 to 0.142647
Heightened Def Con from 0.142647 to 0.142647
Heightened Def Con from 0.142662 to 0.142662
Heightened Def Con from 0.1427 to 0.1427
Heightened Def Con from 0.142715 to 0.142715
Heightened Def Con from 0.142753 to 0.142753
Heightened Def Con from 0.142768 to 0.142768
Heightened Def Con from 0.142806 to 0.142806
Heightened Def Con from 0.142821 to 0.142821
Heightened Def Con from 0.142859 to 0.142859
Heightened Def Con from 0.142859 to 0.142859
Heightened Def Con from 0.142912 to 0.142912
Heightened Def Con from 0.142912 to 0.142912
Heightened Def Con from 0.142912 to 0.142912
Heightened Def Con from 0.142964 to 0.142964
Heightened Def Con from 0.142964 to 0.142964
Heightened Def Con from 0.142979 to 0.142979
Heightened Def Con from 0.143017 to 0.143017
Heightened Def Con from 0.143017 to 0.143017
Heightened Def Con from 0.143032 to 0.143032
Heightened Def Con from 0.14307 to 0.14307
Heightened Def Con from 0.14307 to 0.14307
Heightened Def Con from 0.143085 to 0.143085
Heightened Def Con from 0.143123 to 0.143123
Heightened Def Con from 0.143123 to 0.143123
Heightened Def Con from 0.143176 to 0.143176
Heightened Def Con from 0.143176 to 0.143176
Heightened Def Con from 0.143191 to 0.143191
Heightened Def Con from 0.143229 to 0.143229
Heightened Def Con from 0.143229 to 0.143229
Heightened Def Con from 0.143244 to 0.143244
Heightened Def Con from 0.143282 to 0.143282
Heightened Def Con from 0.143334 to 0.143334
Heightened Def Con from 0.143334 to 0.143334
Heightened Def Con from 0.143349 to 0.143349
Heightened Def Con from 0.143387 to 0.143387
Heightened Def Con from 0.143387 to 0.143387
Heightened Def Con from 0.143387 to 0.143387
Heightened Def Con from 0.14344 to 0.14344
Heightened Def Con from 0.143493 to 0.143493
Heightened Def Con from 0.143546 to 0.143546
Heightened Def Con from 0.143546 to 0.143546
Heightened Def Con from 0.143561 to 0.143561
Heightened Def Con from 0.143599 to 0.143599
Heightened Def Con from 0.143614 to 0.143614
Heightened Def Con from 0.143651 to 0.143651
Heightened Def Con from 0.143651 to 0.143651
Heightened Def Con from 0.143666 to 0.143666
Heightened Def Con from 0.143704 to 0.143704
Heightened Def Con from 0.143757 to 0.143757
Heightened Def Con from 0.143757 to 0.143757
Heightened Def Con from 0.14381 to 0.14381
Heightened Def Con from 0.14381 to 0.14381
Heightened Def Con from 0.143825 to 0.143825
Heightened Def Con from 0.143863 to 0.143863
Heightened Def Con from 0.143863 to 0.143863
Heightened Def Con from 0.143863 to 0.143863
Heightened Def Con from 0.143916 to 0.143916
Heightened Def Con from 0.143916 to 0.143916
Heightened Def Con from 0.143968 to 0.143968
Heightened Def Con from 0.143968 to 0.143968
Heightened Def Con from 0.143983 to 0.143983
Heightened Def Con from 0.144021 to 0.144021
Heightened Def Con from 0.144036 to 0.144036
Heightened Def Con from 0.144073 to 0.144073
Heightened Def Con from 0.144073 to 0.144073
Heightened Def Con from 0.144088 to 0.144088
Heightened Def Con from 0.144126 to 0.144126
Heightened Def Con from 0.144141 to 0.144141
Heightened Def Con from 0.144155 to 0.144155

Date: Mon Dec 11 09:32:43 2023
Total elapsed time: 126.285 seconds.

tnom = 27
temp = 27
method = modified trap
totiter = 9475014
traniter = 9474589
tranpoints = 2972632
accept = 2153372
rejected = 824914
matrix size = 77
fillins = 87
solver = Normal
Thread vector: 9.9/7.3[2] 4.7/2.8[2] 1.8/1.2[2] 0.2/1.1[1]  2592/500
Matrix Compiler1: 11.99 KB object code size  1.7/0.9/[0.6]
Matrix Compiler2: 8.61 KB object code size  0.9/1.4/[0.5]

