Circuit: * Z:\home\q425942\projects\ac-led-bridge\sim\switch.asc

Instance "m:u2:14": Length shorter than recommended for a level 1 MOSFET.
Instance "m:u2:12": Length shorter than recommended for a level 1 MOSFET.
Instance "m:u1:14": Length shorter than recommended for a level 1 MOSFET.
Instance "m:u1:12": Length shorter than recommended for a level 1 MOSFET.
Direct Newton iteration failed to find .op point.  (Use ".option noopiter" to skip.)
Starting Gmin stepping
Increasing initial diagonal Gmin to 100
Increasing initial diagonal Gmin to 1000
Gmin = 1000
Gmin = 107.374
Gmin = 11.5292
Gmin = 1.23794
Gmin = 0.132923
Gmin = 0.0142725
vernier = 0.5
vernier = 0.25
Gmin = 0.00299316
vernier = 0.125
vernier = 0.0625
vernier = 0.03125
vernier = 0.015625
vernier = 0.0078125
vernier = 0.00390625
vernier = 0.00195313
vernier = 0.000976563
vernier = 0.000488281
Gmin = 0
Gmin = 0
Gmin stepping failed

Starting source stepping with srcstepmethod=0
Source Step = 3.0303%
Source Step = 6.07244%
Starting source stepping with srcstepmethod=1
Source Step = 3.0303%
vernier = 0.25
Source stepping failed

Pseudo Transient failed in finding the operating point at 125.734 µs.
Trouble finding operating point....skipping operating point for Transient analysis.
Changing Tseed to 9.76562e-010
Changing Tseed to 9.76562e-012
Changing Tseed to 9.76562e-009
Changing Tseed to 9.76562e-013
Changing Tseed to 9.76563e-008
Changing Tseed to 9.76563e-014
Changing Tseed to 9.76563e-007
Changing Tseed to 9.76562e-015
to 1.95312e-014

Date: Sun Jan 21 22:46:57 2024
Total elapsed time: 331.938 seconds.

tnom = 27
temp = 27
method = modified trap
totiter = 30045910
traniter = 30007015
tranpoints = 7106567
accept = 5335852
rejected = 1771622
matrix size = 106
fillins = 82
solver = Normal
Thread vector: 5.0/3.1[4] 1.3/0.9[4] 3.5/1.2[4] 0.2/0.6[1]  2592/500
Matrix Compiler1: 6.86 KB object code size  0.9/0.6/[0.3]
Matrix Compiler2: 8.88 KB object code size  0.6/0.8/[0.3]

